1

   Abaqus 2021                                  Date 10-Dec-2024   Time 12:20:09
   For use by RWTH AACHEN UNIVERSITY under license from Dassault Systemes or its subsidiary.



                         The Abaqus Software is a product of:

                           Dassault Systemes SIMULIA Corp.
                           1301 Atwood Avenue, Suite 101W
                              Johnston, RI 02919, USA
 


                   The Abaqus Software is available only under license
                   from Dassault Systemes or its subsidiary and may be
                   used or reproduced only in accordance with the terms
                   of such license.
 
                          On machine 4TH-PRE3660-003 
                          you are authorized to run
                          Abaqus/Explicit until 30-Apr-2025

                          Your site id is: 200000000006963 


 
                    For assistance or any other information you may
                    obtain contact information for your local office
                    from the world wide web at:

                      http://www.3ds.com/products/simulia/locations/

 
                * * * * * * * * * * * * * * * * * * * * * * * * * * * * * * 
                *                                                         * 
                *                   *****************                     * 
                *                   *  N O T I C E  *                     * 
                *                   *****************                     * 
                *                                                         * 
                *                                                         * 
                *                       Abaqus 2021                       * 
                *                                                         * 
                *          BUILD ID: 2020_03_06-15.50.37 167380           * 
                *                                                         * 
                *                                                         * 
                *  Please make sure you are using                         * 
                *  release Abaqus 2021 manuals                            * 
                *  plus the notes accompanying this release.              * 
                *                                                         * 
                *                                                         * 
                *                                                         * 
                *                                                         * 
                *                                                         * 
                *   This program may not be used for commercial purposes  * 
                *           without payment of a commercial fee.          * 
                *                                                         * 
                * * * * * * * * * * * * * * * * * * * * * * * * * * * * * * 


 



     PROCESSING PART, INSTANCE, AND ASSEMBLY INFORMATION
   *******************************************************


     END PROCESSING PART, INSTANCE, AND ASSEMBLY INFORMATION
   ***********************************************************

  *initialconditions, type=TEMPERATURE
  *initialconditions, type=VOLUMEFRACTION
  *initialconditions, type=VELOCITY



     OPTIONS BEING PROCESSED
   ***************************


  *Heading
  *Node
  *Element, type=C3D8R
  *Nset, nset=ASSEMBLY_CHIPPLATE-1_CHIPPLATE-REFPT_
  *Nset, nset=ASSEMBLY_CHIPPLATE-1_PLATEDOMAIN
  *Nset, nset=ASSEMBLY_CHIPPLATE-1_PLATERP
  *Elset, elset=ASSEMBLY_CHIPPLATE-1_PLATEDOMAIN
  *Elset, elset=ASSEMBLY_CHIPPLATE-1__CHIPPLATESURFACE_S1
  *Elset, elset=ASSEMBLY_CHIPPLATE-1__CHIPPLATESURFACE_S2
  *Elset, elset=ASSEMBLY_CHIPPLATE-1__CHIPPLATESURFACE_S3
  *Elset, elset=ASSEMBLY_CHIPPLATE-1__CHIPPLATESURFACE_S4
  *Elset, elset=ASSEMBLY_CHIPPLATE-1__CHIPPLATESURFACE_S5
  *Elset, elset=ASSEMBLY_CHIPPLATE-1__CHIPPLATESURFACE_S6
  *Node
  *Element, type=EC3D8RT
  *Nset, nset=ASSEMBLY_EULERIAN-1_EULERDOMAIN
  *Nset, nset=ASSEMBLY_EULERIAN-1_WORKPIECEBOTTOM
  *Nset, nset=ASSEMBLY_EULERIAN-1_WORKPIECEDOMAIN
  *Elset, elset=ASSEMBLY_EULERIAN-1_EULERDOMAIN
  *Elset, elset=ASSEMBLY_EULERIAN-1_WORKPIECEBOTTOM
  *Elset, elset=ASSEMBLY_EULERIAN-1_WORKPIECEDOMAIN
  *Node
  *Element, type=C3D8T
  *Nset, nset=ASSEMBLY_TOOL-1_TOOL-REFPT_
  *Nset, nset=ASSEMBLY_TOOL-1_TOOLDOMAIN
  *Nset, nset=ASSEMBLY_TOOL-1_TOOLRP
  *Elset, elset=ASSEMBLY_TOOL-1_TOOLDOMAIN
  *Elset, elset=ASSEMBLY_TOOL-1__TOOLSURFACE_S4
  *Elset, elset=ASSEMBLY_TOOL-1__TOOLSURFACE_S6
  *Nset, nset=ASSEMBLY_ASSEMBLESET
  *Elset, elset=ASSEMBLY_ASSEMBLESET
  *material, name="EMT210 - Extramet"
  *conductivity
  *density
  *elastic
  *specificheat

 ***WARNING: THE ABSOLUTE ZERO TEMPERATURE HAS NOT BEEN SPECIFIED FOR COMPUTING 
             INTERNAL THERMAL ENERGY USING THE ABSOLUTE ZERO PARAMETER ON THE 
             *PHYSICAL CONSTANTS OPTION. A DEFAULT VALUE OF 0.0000 WILL BE 
             ASSUMED.
  *material, name=INCONEL718
  *conductivity
  *damageinitiation, criterion=JOHNSONCOOK
  *damageevolution, type=DISPLACEMENT, softening=TABULAR
  *density
  *elastic
  *inelasticheatfraction
  *plastic, hardening=JOHNSONCOOK
  *ratedependent, type=JOHNSONCOOK
  *specificheat
  *solidsection, elset=ASSEMBLY_CHIPPLATE-1_PLATEDOMAIN, material=INCONEL718
  *solidsection, elset=ASSEMBLY_TOOL-1_TOOLDOMAIN, material="EMT210 - Extramet"
  *solidsection, elset=ASSEMBLY_CHIPPLATE-1_PLATEDOMAIN, material=INCONEL718
  *solidsection, elset=ASSEMBLY_TOOL-1_TOOLDOMAIN, material="EMT210 - Extramet"
  *rigidbody, refnode=ASSEMBLY_CHIPPLATE-1_PLATERP, elset=ASSEMBLY_CHIPPLATE-1_PLATEDOMAIN
  *rigidbody, refnode=ASSEMBLY_TOOL-1_TOOLRP, elset=ASSEMBLY_TOOL-1_TOOLDOMAIN
  *rigidbody, refnode=ASSEMBLY_CHIPPLATE-1_PLATERP, elset=ASSEMBLY_CHIPPLATE-1_PLATEDOMAIN
  *rigidbody, refnode=ASSEMBLY_TOOL-1_TOOLRP, elset=ASSEMBLY_TOOL-1_TOOLDOMAIN
  *rigidbody, refnode=ASSEMBLY_CHIPPLATE-1_PLATERP, elset=ASSEMBLY_CHIPPLATE-1_PLATEDOMAIN
  *rigidbody, refnode=ASSEMBLY_TOOL-1_TOOLRP, elset=ASSEMBLY_TOOL-1_TOOLDOMAIN
  *rigidbody, refnode=ASSEMBLY_CHIPPLATE-1_PLATERP, elset=ASSEMBLY_CHIPPLATE-1_PLATEDOMAIN
  *rigidbody, refnode=ASSEMBLY_TOOL-1_TOOLRP, elset=ASSEMBLY_TOOL-1_TOOLDOMAIN
  *surface, type=ELEMENT, name=ASSEMBLY_CHIPPLATE-1_CHIPPLATESURFACE
  *surface, type=EULERIANMATERIAL, name=ASSEMBLY_EULERIAN-1_INCONEL718-1
  *surface, type=ELEMENT, name=ASSEMBLY_TOOL-1_TOOLSURFACE
  *surface, type=ELEMENT, name=ASSEMBLY_CHIPPLATE-1_CHIPPLATESURFACE
  *surface, type=EULERIANMATERIAL, name=ASSEMBLY_EULERIAN-1_INCONEL718-1
  *surface, type=ELEMENT, name=ASSEMBLY_TOOL-1_TOOLSURFACE
  *rigidbody, refnode=ASSEMBLY_CHIPPLATE-1_PLATERP, elset=ASSEMBLY_CHIPPLATE-1_PLATEDOMAIN
  *rigidbody, refnode=ASSEMBLY_TOOL-1_TOOLRP, elset=ASSEMBLY_TOOL-1_TOOLDOMAIN
  *surfaceinteraction, name=CHIP-PLATE-CONTACT
  *friction
  *surfaceinteraction, name=SELF-CONTACT
  *friction
  *surfaceinteraction, name=TOOL-CHIP-CONTACT
  *friction
  *euleriansection, elset=ASSEMBLY_EULERIAN-1_EULERDOMAIN
  *rigidbody, refnode=ASSEMBLY_CHIPPLATE-1_PLATERP, elset=ASSEMBLY_CHIPPLATE-1_PLATEDOMAIN
  *rigidbody, refnode=ASSEMBLY_TOOL-1_TOOLRP, elset=ASSEMBLY_TOOL-1_TOOLDOMAIN
  *rigidbody, refnode=ASSEMBLY_CHIPPLATE-1_PLATERP, elset=ASSEMBLY_CHIPPLATE-1_PLATEDOMAIN
  *rigidbody, refnode=ASSEMBLY_TOOL-1_TOOLRP, elset=ASSEMBLY_TOOL-1_TOOLDOMAIN
  *boundary, type=VELOCITY
  *boundary, type=VELOCITY
  *boundary
  *boundary
  *solidsection, elset=ASSEMBLY_CHIPPLATE-1_PLATEDOMAIN, material=INCONEL718
  *solidsection, elset=ASSEMBLY_TOOL-1_TOOLDOMAIN, material="EMT210 - Extramet"
  *euleriansection, elset=ASSEMBLY_EULERIAN-1_EULERDOMAIN
  *rigidbody, refnode=ASSEMBLY_CHIPPLATE-1_PLATERP, elset=ASSEMBLY_CHIPPLATE-1_PLATEDOMAIN
  *rigidbody, refnode=ASSEMBLY_TOOL-1_TOOLRP, elset=ASSEMBLY_TOOL-1_TOOLDOMAIN
  *initialconditions, type=TEMPERATURE
  *initialconditions, type=VOLUMEFRACTION
  *initialconditions, type=VELOCITY
  *friction
  *friction
  *friction
  *gapconductance, pressure
  *initialconditions, type=TEMPERATURE
  *initialconditions, type=VOLUMEFRACTION
  *initialconditions, type=VELOCITY
  *initialconditions, type=TEMPERATURE
  *initialconditions, type=VOLUMEFRACTION
  *initialconditions, type=VELOCITY
  *elementoutput, directions=YES
  *output, field, numberinterval=50
  *output, history, timeinterval=6e-06
  *Step, name=CuttingStep, nlgeom=YES
  *Step, name=CuttingStep, nlgeom=YES
  *dynamictemperature-displacement, explicit
  *boundary, type=VELOCITY
  *boundary, type=VELOCITY
  *boundary
  *boundary
  *output, field, numberinterval=50
  *nodeoutput
  *elementoutput, directions=YES
  *contactoutput
  *output, history, timeinterval=6e-06
  *nodeoutput, nset=ASSEMBLY_TOOL-1_TOOLRP
  *endstep

 ***WARNING: INTEGRATION AND SECTION POINT OUTPUT VARIABLES WILL NOT BE OUTPUT 
             FOR DEFORMABLE ELEMENTS THAT ARE DECLARED AS RIGID USING THE 
             *RIGID BODY OPTION

 ***WARNING: INTEGRATION AND SECTION POINT OUTPUT VARIABLES WILL NOT BE OUTPUT 
             FOR DEFORMABLE ELEMENTS THAT ARE DECLARED AS RIGID USING THE 
             *RIGID BODY OPTION

 ***NOTE: OUTPUT REQUEST DMICRT IS NOT AVAILABLE FOR THE MATERIAL FOR ELEMENT 
          TYPE C3D8T

 ***WARNING: OUTPUT REQUEST EVF IS NOT AVAILABLE FOR ELEMENT TYPE C3D8T

 ***NOTE: OUTPUT REQUEST SDEG IS NOT AVAILABLE FOR THE MATERIAL FOR ELEMENT 
          TYPE C3D8T
  *surface, type=ELEMENT, name=ASSEMBLY_CHIPPLATE-1_CHIPPLATESURFACE
  *surface, type=EULERIANMATERIAL, name=ASSEMBLY_EULERIAN-1_INCONEL718-1
  *surface, type=ELEMENT, name=ASSEMBLY_TOOL-1_TOOLSURFACE
  *surfaceinteraction, name=CHIP-PLATE-CONTACT
  *friction
  *surfacebehavior, pressure-overclosure=HARD
  *surfaceinteraction, name=SELF-CONTACT
  *friction
  *surfacebehavior, pressure-overclosure=HARD
  *surfaceinteraction, name=TOOL-CHIP-CONTACT
  *friction
  *surfacebehavior, pressure-overclosure=HARD
  *gapconductance, pressure
  *Step, name=CuttingStep, nlgeom=YES
  *dynamictemperature-displacement, explicit
  *boundary, type=VELOCITY
  *boundary, type=VELOCITY
  *boundary

 ***WARNING: THE OPTION *BOUNDARY,TYPE=DISPLACEMENT HAS BEEN USED; CHECK STATUS 
             FILE BETWEEN STEPS FOR WARNINGS ON ANY JUMPS PRESCRIBED ACROSS THE 
             STEPS IN DISPLACEMENT VALUES OF TRANSLATIONAL DOF. FOR ROTATIONAL 
             DOF MAKE SURE THAT THERE ARE NO SUCH JUMPS. ALL JUMPS IN 
             DISPLACEMENTS ACROSS STEPS ARE IGNORED
  *boundary
  *contact, op=NEW
  *contactinclusions, allexterior
  *contactpropertyassignment
  *endstep
     NUMBER OF MATERIALS DEFINED FOR THIS SECTION:       1

 ***WARNING: DEGREE OF FREEDOM 4 IS NOT ACTIVE ON NODE 65 INSTANCE EULERIAN-1 - 
             THIS BOUNDARY CONDITION IS IGNORED

 ***WARNING: DEGREE OF FREEDOM 5 IS NOT ACTIVE ON NODE 65 INSTANCE EULERIAN-1 - 
             THIS BOUNDARY CONDITION IS IGNORED

 ***WARNING: DEGREE OF FREEDOM 6 IS NOT ACTIVE ON NODE 65 INSTANCE EULERIAN-1 - 
             THIS BOUNDARY CONDITION IS IGNORED

 ***WARNING: DEGREE OF FREEDOM 4 IS NOT ACTIVE ON NODE 66 INSTANCE EULERIAN-1 - 
             THIS BOUNDARY CONDITION IS IGNORED

 ***WARNING: DEGREE OF FREEDOM 5 IS NOT ACTIVE ON NODE 66 INSTANCE EULERIAN-1 - 
             THIS BOUNDARY CONDITION IS IGNORED

 ***WARNING: DEGREE OF FREEDOM 6 IS NOT ACTIVE ON NODE 66 INSTANCE EULERIAN-1 - 
             THIS BOUNDARY CONDITION IS IGNORED

 ***WARNING: DEGREE OF FREEDOM 4 IS NOT ACTIVE ON NODE 67 INSTANCE EULERIAN-1 - 
             THIS BOUNDARY CONDITION IS IGNORED

 ***WARNING: DEGREE OF FREEDOM 5 IS NOT ACTIVE ON NODE 67 INSTANCE EULERIAN-1 - 
             THIS BOUNDARY CONDITION IS IGNORED

 ***WARNING: DEGREE OF FREEDOM 6 IS NOT ACTIVE ON NODE 67 INSTANCE EULERIAN-1 - 
             THIS BOUNDARY CONDITION IS IGNORED

 ***WARNING: DEGREE OF FREEDOM 4 IS NOT ACTIVE ON NODE 68 INSTANCE EULERIAN-1 - 
             THIS BOUNDARY CONDITION IS IGNORED

 ***WARNING: DEGREE OF FREEDOM 5 IS NOT ACTIVE ON NODE 68 INSTANCE EULERIAN-1 - 
             THIS BOUNDARY CONDITION IS IGNORED

 ***WARNING: DEGREE OF FREEDOM 6 IS NOT ACTIVE ON NODE 68 INSTANCE EULERIAN-1 - 
             THIS BOUNDARY CONDITION IS IGNORED

 ***WARNING: DEGREE OF FREEDOM 4 IS NOT ACTIVE ON NODE 75 INSTANCE EULERIAN-1 - 
             THIS BOUNDARY CONDITION IS IGNORED

 ***WARNING: DEGREE OF FREEDOM 5 IS NOT ACTIVE ON NODE 75 INSTANCE EULERIAN-1 - 
             THIS BOUNDARY CONDITION IS IGNORED

 ***WARNING: DEGREE OF FREEDOM 6 IS NOT ACTIVE ON NODE 75 INSTANCE EULERIAN-1 - 
             THIS BOUNDARY CONDITION IS IGNORED

 ***WARNING: DEGREE OF FREEDOM 4 IS NOT ACTIVE ON NODE 76 INSTANCE EULERIAN-1 - 
             THIS BOUNDARY CONDITION IS IGNORED

 ***WARNING: DEGREE OF FREEDOM 5 IS NOT ACTIVE ON NODE 76 INSTANCE EULERIAN-1 - 
             THIS BOUNDARY CONDITION IS IGNORED

 ***WARNING: DEGREE OF FREEDOM 6 IS NOT ACTIVE ON NODE 76 INSTANCE EULERIAN-1 - 
             THIS BOUNDARY CONDITION IS IGNORED

 ***WARNING: DEGREE OF FREEDOM 4 IS NOT ACTIVE ON NODE 85 INSTANCE EULERIAN-1 - 
             THIS BOUNDARY CONDITION IS IGNORED

 ***WARNING: DEGREE OF FREEDOM 5 IS NOT ACTIVE ON NODE 85 INSTANCE EULERIAN-1 - 
             THIS BOUNDARY CONDITION IS IGNORED

 ***WARNING: DEGREE OF FREEDOM 6 IS NOT ACTIVE ON NODE 85 INSTANCE EULERIAN-1 - 
             THIS BOUNDARY CONDITION IS IGNORED

 ***WARNING: DEGREE OF FREEDOM 4 IS NOT ACTIVE ON NODE 86 INSTANCE EULERIAN-1 - 
             THIS BOUNDARY CONDITION IS IGNORED

 ***WARNING: DEGREE OF FREEDOM 5 IS NOT ACTIVE ON NODE 86 INSTANCE EULERIAN-1 - 
             THIS BOUNDARY CONDITION IS IGNORED

 ***WARNING: DEGREE OF FREEDOM 6 IS NOT ACTIVE ON NODE 86 INSTANCE EULERIAN-1 - 
             THIS BOUNDARY CONDITION IS IGNORED

 ***WARNING: DEGREE OF FREEDOM 4 IS NOT ACTIVE ON NODE 87 INSTANCE EULERIAN-1 - 
             THIS BOUNDARY CONDITION IS IGNORED

 ***WARNING: DEGREE OF FREEDOM 5 IS NOT ACTIVE ON NODE 87 INSTANCE EULERIAN-1 - 
             THIS BOUNDARY CONDITION IS IGNORED

 ***WARNING: DEGREE OF FREEDOM 6 IS NOT ACTIVE ON NODE 87 INSTANCE EULERIAN-1 - 
             THIS BOUNDARY CONDITION IS IGNORED

 ***WARNING: DEGREE OF FREEDOM 4 IS NOT ACTIVE ON NODE 88 INSTANCE EULERIAN-1 - 
             THIS BOUNDARY CONDITION IS IGNORED

 ***WARNING: DEGREE OF FREEDOM 5 IS NOT ACTIVE ON NODE 88 INSTANCE EULERIAN-1 - 
             THIS BOUNDARY CONDITION IS IGNORED

 ***WARNING: DEGREE OF FREEDOM 6 IS NOT ACTIVE ON NODE 88 INSTANCE EULERIAN-1 - 
             THIS BOUNDARY CONDITION IS IGNORED

 ***WARNING: DEGREE OF FREEDOM 4 IS NOT ACTIVE ON NODE 89 INSTANCE EULERIAN-1 - 
             THIS BOUNDARY CONDITION IS IGNORED

 ***WARNING: DEGREE OF FREEDOM 5 IS NOT ACTIVE ON NODE 89 INSTANCE EULERIAN-1 - 
             THIS BOUNDARY CONDITION IS IGNORED

 ***WARNING: DEGREE OF FREEDOM 6 IS NOT ACTIVE ON NODE 89 INSTANCE EULERIAN-1 - 
             THIS BOUNDARY CONDITION IS IGNORED

 ***WARNING: DEGREE OF FREEDOM 4 IS NOT ACTIVE ON NODE 90 INSTANCE EULERIAN-1 - 
             THIS BOUNDARY CONDITION IS IGNORED

 ***WARNING: DEGREE OF FREEDOM 5 IS NOT ACTIVE ON NODE 90 INSTANCE EULERIAN-1 - 
             THIS BOUNDARY CONDITION IS IGNORED

 ***WARNING: DEGREE OF FREEDOM 6 IS NOT ACTIVE ON NODE 90 INSTANCE EULERIAN-1 - 
             THIS BOUNDARY CONDITION IS IGNORED

 ***WARNING: DEGREE OF FREEDOM 4 IS NOT ACTIVE ON NODE 4300 INSTANCE EULERIAN-1 
             - THIS BOUNDARY CONDITION IS IGNORED

 ***WARNING: DEGREE OF FREEDOM 5 IS NOT ACTIVE ON NODE 4300 INSTANCE EULERIAN-1 
             - THIS BOUNDARY CONDITION IS IGNORED

 ***WARNING: DEGREE OF FREEDOM 6 IS NOT ACTIVE ON NODE 4300 INSTANCE EULERIAN-1 
             - THIS BOUNDARY CONDITION IS IGNORED

 ***WARNING: DEGREE OF FREEDOM 4 IS NOT ACTIVE ON NODE 4301 INSTANCE EULERIAN-1 
             - THIS BOUNDARY CONDITION IS IGNORED

 ***WARNING: DEGREE OF FREEDOM 5 IS NOT ACTIVE ON NODE 4301 INSTANCE EULERIAN-1 
             - THIS BOUNDARY CONDITION IS IGNORED

 ***WARNING: DEGREE OF FREEDOM 6 IS NOT ACTIVE ON NODE 4301 INSTANCE EULERIAN-1 
             - THIS BOUNDARY CONDITION IS IGNORED

 ***WARNING: DEGREE OF FREEDOM 4 IS NOT ACTIVE ON NODE 4302 INSTANCE EULERIAN-1 
             - THIS BOUNDARY CONDITION IS IGNORED

 ***WARNING: DEGREE OF FREEDOM 5 IS NOT ACTIVE ON NODE 4302 INSTANCE EULERIAN-1 
             - THIS BOUNDARY CONDITION IS IGNORED

 ***WARNING: DEGREE OF FREEDOM 6 IS NOT ACTIVE ON NODE 4302 INSTANCE EULERIAN-1 
             - THIS BOUNDARY CONDITION IS IGNORED

 ***WARNING: DEGREE OF FREEDOM 4 IS NOT ACTIVE ON NODE 4303 INSTANCE EULERIAN-1 
             - THIS BOUNDARY CONDITION IS IGNORED

 ***WARNING: DEGREE OF FREEDOM 5 IS NOT ACTIVE ON NODE 4303 INSTANCE EULERIAN-1 
             - THIS BOUNDARY CONDITION IS IGNORED

 ***WARNING: DEGREE OF FREEDOM 6 IS NOT ACTIVE ON NODE 4303 INSTANCE EULERIAN-1 
             - THIS BOUNDARY CONDITION IS IGNORED

 ***WARNING: DEGREE OF FREEDOM 4 IS NOT ACTIVE ON NODE 4304 INSTANCE EULERIAN-1 
             - THIS BOUNDARY CONDITION IS IGNORED

 ***WARNING: DEGREE OF FREEDOM 5 IS NOT ACTIVE ON NODE 4304 INSTANCE EULERIAN-1 
             - THIS BOUNDARY CONDITION IS IGNORED

 ***WARNING: DEGREE OF FREEDOM 6 IS NOT ACTIVE ON NODE 4304 INSTANCE EULERIAN-1 
             - THIS BOUNDARY CONDITION IS IGNORED

 ***WARNING: DEGREE OF FREEDOM 4 IS NOT ACTIVE ON NODE 4305 INSTANCE EULERIAN-1 
             - THIS BOUNDARY CONDITION IS IGNORED

 ***WARNING: DEGREE OF FREEDOM 5 IS NOT ACTIVE ON NODE 4305 INSTANCE EULERIAN-1 
             - THIS BOUNDARY CONDITION IS IGNORED

 ***WARNING: DEGREE OF FREEDOM 6 IS NOT ACTIVE ON NODE 4305 INSTANCE EULERIAN-1 
             - THIS BOUNDARY CONDITION IS IGNORED

 ***WARNING: DEGREE OF FREEDOM 4 IS NOT ACTIVE ON NODE 4306 INSTANCE EULERIAN-1 
             - THIS BOUNDARY CONDITION IS IGNORED

 ***WARNING: DEGREE OF FREEDOM 5 IS NOT ACTIVE ON NODE 4306 INSTANCE EULERIAN-1 
             - THIS BOUNDARY CONDITION IS IGNORED

 ***WARNING: DEGREE OF FREEDOM 6 IS NOT ACTIVE ON NODE 4306 INSTANCE EULERIAN-1 
             - THIS BOUNDARY CONDITION IS IGNORED

 ***WARNING: DEGREE OF FREEDOM 4 IS NOT ACTIVE ON NODE 4307 INSTANCE EULERIAN-1 
             - THIS BOUNDARY CONDITION IS IGNORED

 ***WARNING: DEGREE OF FREEDOM 5 IS NOT ACTIVE ON NODE 4307 INSTANCE EULERIAN-1 
             - THIS BOUNDARY CONDITION IS IGNORED

 ***WARNING: DEGREE OF FREEDOM 6 IS NOT ACTIVE ON NODE 4307 INSTANCE EULERIAN-1 
             - THIS BOUNDARY CONDITION IS IGNORED

 ***WARNING: DEGREE OF FREEDOM 4 IS NOT ACTIVE ON NODE 4308 INSTANCE EULERIAN-1 
             - THIS BOUNDARY CONDITION IS IGNORED

 ***WARNING: DEGREE OF FREEDOM 5 IS NOT ACTIVE ON NODE 4308 INSTANCE EULERIAN-1 
             - THIS BOUNDARY CONDITION IS IGNORED

 ***WARNING: DEGREE OF FREEDOM 6 IS NOT ACTIVE ON NODE 4308 INSTANCE EULERIAN-1 
             - THIS BOUNDARY CONDITION IS IGNORED

 ***WARNING: DEGREE OF FREEDOM 4 IS NOT ACTIVE ON NODE 4309 INSTANCE EULERIAN-1 
             - THIS BOUNDARY CONDITION IS IGNORED

 ***WARNING: DEGREE OF FREEDOM 5 IS NOT ACTIVE ON NODE 4309 INSTANCE EULERIAN-1 
             - THIS BOUNDARY CONDITION IS IGNORED

 ***WARNING: DEGREE OF FREEDOM 6 IS NOT ACTIVE ON NODE 4309 INSTANCE EULERIAN-1 
             - THIS BOUNDARY CONDITION IS IGNORED

 ***WARNING: DEGREE OF FREEDOM 4 IS NOT ACTIVE ON NODE 4310 INSTANCE EULERIAN-1 
             - THIS BOUNDARY CONDITION IS IGNORED

 ***WARNING: DEGREE OF FREEDOM 5 IS NOT ACTIVE ON NODE 4310 INSTANCE EULERIAN-1 
             - THIS BOUNDARY CONDITION IS IGNORED

 ***WARNING: DEGREE OF FREEDOM 6 IS NOT ACTIVE ON NODE 4310 INSTANCE EULERIAN-1 
             - THIS BOUNDARY CONDITION IS IGNORED

 ***WARNING: DEGREE OF FREEDOM 4 IS NOT ACTIVE ON NODE 4311 INSTANCE EULERIAN-1 
             - THIS BOUNDARY CONDITION IS IGNORED

 ***WARNING: DEGREE OF FREEDOM 5 IS NOT ACTIVE ON NODE 4311 INSTANCE EULERIAN-1 
             - THIS BOUNDARY CONDITION IS IGNORED

 ***WARNING: DEGREE OF FREEDOM 6 IS NOT ACTIVE ON NODE 4311 INSTANCE EULERIAN-1 
             - THIS BOUNDARY CONDITION IS IGNORED

 ***WARNING: DEGREE OF FREEDOM 4 IS NOT ACTIVE ON NODE 4312 INSTANCE EULERIAN-1 
             - THIS BOUNDARY CONDITION IS IGNORED

 ***WARNING: DEGREE OF FREEDOM 5 IS NOT ACTIVE ON NODE 4312 INSTANCE EULERIAN-1 
             - THIS BOUNDARY CONDITION IS IGNORED

 ***WARNING: DEGREE OF FREEDOM 6 IS NOT ACTIVE ON NODE 4312 INSTANCE EULERIAN-1 
             - THIS BOUNDARY CONDITION IS IGNORED

 ***WARNING: DEGREE OF FREEDOM 4 IS NOT ACTIVE ON NODE 4313 INSTANCE EULERIAN-1 
             - THIS BOUNDARY CONDITION IS IGNORED

 ***WARNING: DEGREE OF FREEDOM 5 IS NOT ACTIVE ON NODE 4313 INSTANCE EULERIAN-1 
             - THIS BOUNDARY CONDITION IS IGNORED

 ***WARNING: DEGREE OF FREEDOM 6 IS NOT ACTIVE ON NODE 4313 INSTANCE EULERIAN-1 
             - THIS BOUNDARY CONDITION IS IGNORED

 ***WARNING: DEGREE OF FREEDOM 4 IS NOT ACTIVE ON NODE 4314 INSTANCE EULERIAN-1 
             - THIS BOUNDARY CONDITION IS IGNORED

 ***WARNING: DEGREE OF FREEDOM 5 IS NOT ACTIVE ON NODE 4314 INSTANCE EULERIAN-1 
             - THIS BOUNDARY CONDITION IS IGNORED

 ***WARNING: DEGREE OF FREEDOM 6 IS NOT ACTIVE ON NODE 4314 INSTANCE EULERIAN-1 
             - THIS BOUNDARY CONDITION IS IGNORED

 ***WARNING: DEGREE OF FREEDOM 4 IS NOT ACTIVE ON NODE 4315 INSTANCE EULERIAN-1 
             - THIS BOUNDARY CONDITION IS IGNORED

 ***WARNING: DEGREE OF FREEDOM 5 IS NOT ACTIVE ON NODE 4315 INSTANCE EULERIAN-1 
             - THIS BOUNDARY CONDITION IS IGNORED

 ***WARNING: DEGREE OF FREEDOM 6 IS NOT ACTIVE ON NODE 4315 INSTANCE EULERIAN-1 
             - THIS BOUNDARY CONDITION IS IGNORED

 ***WARNING: DEGREE OF FREEDOM 4 IS NOT ACTIVE ON NODE 4316 INSTANCE EULERIAN-1 
             - THIS BOUNDARY CONDITION IS IGNORED

 ***WARNING: DEGREE OF FREEDOM 5 IS NOT ACTIVE ON NODE 4316 INSTANCE EULERIAN-1 
             - THIS BOUNDARY CONDITION IS IGNORED

 ***WARNING: DEGREE OF FREEDOM 6 IS NOT ACTIVE ON NODE 4316 INSTANCE EULERIAN-1 
             - THIS BOUNDARY CONDITION IS IGNORED

 ***WARNING: DEGREE OF FREEDOM 4 IS NOT ACTIVE ON NODE 4317 INSTANCE EULERIAN-1 
             - THIS BOUNDARY CONDITION IS IGNORED

 ***WARNING: DEGREE OF FREEDOM 5 IS NOT ACTIVE ON NODE 4317 INSTANCE EULERIAN-1 
             - THIS BOUNDARY CONDITION IS IGNORED

 ***WARNING: DEGREE OF FREEDOM 6 IS NOT ACTIVE ON NODE 4317 INSTANCE EULERIAN-1 
             - THIS BOUNDARY CONDITION IS IGNORED

 ***WARNING: DEGREE OF FREEDOM 4 IS NOT ACTIVE ON NODE 4318 INSTANCE EULERIAN-1 
             - THIS BOUNDARY CONDITION IS IGNORED

 ***WARNING: DEGREE OF FREEDOM 5 IS NOT ACTIVE ON NODE 4318 INSTANCE EULERIAN-1 
             - THIS BOUNDARY CONDITION IS IGNORED

 ***WARNING: DEGREE OF FREEDOM 6 IS NOT ACTIVE ON NODE 4318 INSTANCE EULERIAN-1 
             - THIS BOUNDARY CONDITION IS IGNORED

 ***WARNING: DEGREE OF FREEDOM 4 IS NOT ACTIVE ON NODE 4319 INSTANCE EULERIAN-1 
             - THIS BOUNDARY CONDITION IS IGNORED

 ***WARNING: DEGREE OF FREEDOM 5 IS NOT ACTIVE ON NODE 4319 INSTANCE EULERIAN-1 
             - THIS BOUNDARY CONDITION IS IGNORED

 ***WARNING: DEGREE OF FREEDOM 6 IS NOT ACTIVE ON NODE 4319 INSTANCE EULERIAN-1 
             - THIS BOUNDARY CONDITION IS IGNORED

 ***WARNING: DEGREE OF FREEDOM 4 IS NOT ACTIVE ON NODE 4320 INSTANCE EULERIAN-1 
             - THIS BOUNDARY CONDITION IS IGNORED

 ***WARNING: DEGREE OF FREEDOM 5 IS NOT ACTIVE ON NODE 4320 INSTANCE EULERIAN-1 
             - THIS BOUNDARY CONDITION IS IGNORED

 ***WARNING: DEGREE OF FREEDOM 6 IS NOT ACTIVE ON NODE 4320 INSTANCE EULERIAN-1 
             - THIS BOUNDARY CONDITION IS IGNORED

 ***WARNING: DEGREE OF FREEDOM 4 IS NOT ACTIVE ON NODE 4321 INSTANCE EULERIAN-1 
             - THIS BOUNDARY CONDITION IS IGNORED

 ***WARNING: DEGREE OF FREEDOM 5 IS NOT ACTIVE ON NODE 4321 INSTANCE EULERIAN-1 
             - THIS BOUNDARY CONDITION IS IGNORED

 ***WARNING: DEGREE OF FREEDOM 6 IS NOT ACTIVE ON NODE 4321 INSTANCE EULERIAN-1 
             - THIS BOUNDARY CONDITION IS IGNORED

 ***WARNING: DEGREE OF FREEDOM 4 IS NOT ACTIVE ON NODE 4322 INSTANCE EULERIAN-1 
             - THIS BOUNDARY CONDITION IS IGNORED

 ***WARNING: DEGREE OF FREEDOM 5 IS NOT ACTIVE ON NODE 4322 INSTANCE EULERIAN-1 
             - THIS BOUNDARY CONDITION IS IGNORED

 ***WARNING: DEGREE OF FREEDOM 6 IS NOT ACTIVE ON NODE 4322 INSTANCE EULERIAN-1 
             - THIS BOUNDARY CONDITION IS IGNORED

 ***WARNING: DEGREE OF FREEDOM 4 IS NOT ACTIVE ON NODE 4323 INSTANCE EULERIAN-1 
             - THIS BOUNDARY CONDITION IS IGNORED

 ***WARNING: DEGREE OF FREEDOM 5 IS NOT ACTIVE ON NODE 4323 INSTANCE EULERIAN-1 
             - THIS BOUNDARY CONDITION IS IGNORED

 ***WARNING: DEGREE OF FREEDOM 6 IS NOT ACTIVE ON NODE 4323 INSTANCE EULERIAN-1 
             - THIS BOUNDARY CONDITION IS IGNORED

 ***WARNING: DEGREE OF FREEDOM 4 IS NOT ACTIVE ON NODE 4324 INSTANCE EULERIAN-1 
             - THIS BOUNDARY CONDITION IS IGNORED

 ***WARNING: DEGREE OF FREEDOM 5 IS NOT ACTIVE ON NODE 4324 INSTANCE EULERIAN-1 
             - THIS BOUNDARY CONDITION IS IGNORED

 ***WARNING: DEGREE OF FREEDOM 6 IS NOT ACTIVE ON NODE 4324 INSTANCE EULERIAN-1 
             - THIS BOUNDARY CONDITION IS IGNORED

 ***WARNING: DEGREE OF FREEDOM 4 IS NOT ACTIVE ON NODE 4325 INSTANCE EULERIAN-1 
             - THIS BOUNDARY CONDITION IS IGNORED

 ***WARNING: DEGREE OF FREEDOM 5 IS NOT ACTIVE ON NODE 4325 INSTANCE EULERIAN-1 
             - THIS BOUNDARY CONDITION IS IGNORED

 ***WARNING: DEGREE OF FREEDOM 6 IS NOT ACTIVE ON NODE 4325 INSTANCE EULERIAN-1 
             - THIS BOUNDARY CONDITION IS IGNORED

 ***WARNING: DEGREE OF FREEDOM 4 IS NOT ACTIVE ON NODE 4326 INSTANCE EULERIAN-1 
             - THIS BOUNDARY CONDITION IS IGNORED

 ***WARNING: DEGREE OF FREEDOM 5 IS NOT ACTIVE ON NODE 4326 INSTANCE EULERIAN-1 
             - THIS BOUNDARY CONDITION IS IGNORED

 ***WARNING: DEGREE OF FREEDOM 6 IS NOT ACTIVE ON NODE 4326 INSTANCE EULERIAN-1 
             - THIS BOUNDARY CONDITION IS IGNORED

 ***WARNING: DEGREE OF FREEDOM 4 IS NOT ACTIVE ON NODE 4327 INSTANCE EULERIAN-1 
             - THIS BOUNDARY CONDITION IS IGNORED

 ***WARNING: DEGREE OF FREEDOM 5 IS NOT ACTIVE ON NODE 4327 INSTANCE EULERIAN-1 
             - THIS BOUNDARY CONDITION IS IGNORED

 ***WARNING: DEGREE OF FREEDOM 6 IS NOT ACTIVE ON NODE 4327 INSTANCE EULERIAN-1 
             - THIS BOUNDARY CONDITION IS IGNORED

 ***WARNING: DEGREE OF FREEDOM 4 IS NOT ACTIVE ON NODE 4328 INSTANCE EULERIAN-1 
             - THIS BOUNDARY CONDITION IS IGNORED

 ***WARNING: DEGREE OF FREEDOM 5 IS NOT ACTIVE ON NODE 4328 INSTANCE EULERIAN-1 
             - THIS BOUNDARY CONDITION IS IGNORED

 ***WARNING: DEGREE OF FREEDOM 6 IS NOT ACTIVE ON NODE 4328 INSTANCE EULERIAN-1 
             - THIS BOUNDARY CONDITION IS IGNORED

 ***WARNING: DEGREE OF FREEDOM 4 IS NOT ACTIVE ON NODE 4329 INSTANCE EULERIAN-1 
             - THIS BOUNDARY CONDITION IS IGNORED

 ***WARNING: DEGREE OF FREEDOM 5 IS NOT ACTIVE ON NODE 4329 INSTANCE EULERIAN-1 
             - THIS BOUNDARY CONDITION IS IGNORED

 ***WARNING: DEGREE OF FREEDOM 6 IS NOT ACTIVE ON NODE 4329 INSTANCE EULERIAN-1 
             - THIS BOUNDARY CONDITION IS IGNORED

 ***WARNING: DEGREE OF FREEDOM 4 IS NOT ACTIVE ON NODE 4330 INSTANCE EULERIAN-1 
             - THIS BOUNDARY CONDITION IS IGNORED

 ***WARNING: DEGREE OF FREEDOM 5 IS NOT ACTIVE ON NODE 4330 INSTANCE EULERIAN-1 
             - THIS BOUNDARY CONDITION IS IGNORED

 ***WARNING: DEGREE OF FREEDOM 6 IS NOT ACTIVE ON NODE 4330 INSTANCE EULERIAN-1 
             - THIS BOUNDARY CONDITION IS IGNORED

 ***WARNING: DEGREE OF FREEDOM 4 IS NOT ACTIVE ON NODE 4331 INSTANCE EULERIAN-1 
             - THIS BOUNDARY CONDITION IS IGNORED

 ***WARNING: DEGREE OF FREEDOM 5 IS NOT ACTIVE ON NODE 4331 INSTANCE EULERIAN-1 
             - THIS BOUNDARY CONDITION IS IGNORED

 ***WARNING: DEGREE OF FREEDOM 6 IS NOT ACTIVE ON NODE 4331 INSTANCE EULERIAN-1 
             - THIS BOUNDARY CONDITION IS IGNORED

 ***WARNING: DEGREE OF FREEDOM 4 IS NOT ACTIVE ON NODE 4332 INSTANCE EULERIAN-1 
             - THIS BOUNDARY CONDITION IS IGNORED

 ***WARNING: DEGREE OF FREEDOM 5 IS NOT ACTIVE ON NODE 4332 INSTANCE EULERIAN-1 
             - THIS BOUNDARY CONDITION IS IGNORED

 ***WARNING: DEGREE OF FREEDOM 6 IS NOT ACTIVE ON NODE 4332 INSTANCE EULERIAN-1 
             - THIS BOUNDARY CONDITION IS IGNORED

 ***WARNING: DEGREE OF FREEDOM 4 IS NOT ACTIVE ON NODE 4333 INSTANCE EULERIAN-1 
             - THIS BOUNDARY CONDITION IS IGNORED

 ***WARNING: DEGREE OF FREEDOM 5 IS NOT ACTIVE ON NODE 4333 INSTANCE EULERIAN-1 
             - THIS BOUNDARY CONDITION IS IGNORED

 ***WARNING: DEGREE OF FREEDOM 6 IS NOT ACTIVE ON NODE 4333 INSTANCE EULERIAN-1 
             - THIS BOUNDARY CONDITION IS IGNORED

 ***WARNING: DEGREE OF FREEDOM 4 IS NOT ACTIVE ON NODE 4334 INSTANCE EULERIAN-1 
             - THIS BOUNDARY CONDITION IS IGNORED

 ***WARNING: DEGREE OF FREEDOM 5 IS NOT ACTIVE ON NODE 4334 INSTANCE EULERIAN-1 
             - THIS BOUNDARY CONDITION IS IGNORED

 ***WARNING: DEGREE OF FREEDOM 6 IS NOT ACTIVE ON NODE 4334 INSTANCE EULERIAN-1 
             - THIS BOUNDARY CONDITION IS IGNORED

 ***WARNING: DEGREE OF FREEDOM 4 IS NOT ACTIVE ON NODE 4335 INSTANCE EULERIAN-1 
             - THIS BOUNDARY CONDITION IS IGNORED

 ***WARNING: DEGREE OF FREEDOM 5 IS NOT ACTIVE ON NODE 4335 INSTANCE EULERIAN-1 
             - THIS BOUNDARY CONDITION IS IGNORED

 ***WARNING: DEGREE OF FREEDOM 6 IS NOT ACTIVE ON NODE 4335 INSTANCE EULERIAN-1 
             - THIS BOUNDARY CONDITION IS IGNORED

 ***WARNING: DEGREE OF FREEDOM 4 IS NOT ACTIVE ON NODE 4336 INSTANCE EULERIAN-1 
             - THIS BOUNDARY CONDITION IS IGNORED

 ***WARNING: DEGREE OF FREEDOM 5 IS NOT ACTIVE ON NODE 4336 INSTANCE EULERIAN-1 
             - THIS BOUNDARY CONDITION IS IGNORED

 ***WARNING: DEGREE OF FREEDOM 6 IS NOT ACTIVE ON NODE 4336 INSTANCE EULERIAN-1 
             - THIS BOUNDARY CONDITION IS IGNORED

 ***WARNING: DEGREE OF FREEDOM 4 IS NOT ACTIVE ON NODE 4337 INSTANCE EULERIAN-1 
             - THIS BOUNDARY CONDITION IS IGNORED

 ***WARNING: DEGREE OF FREEDOM 5 IS NOT ACTIVE ON NODE 4337 INSTANCE EULERIAN-1 
             - THIS BOUNDARY CONDITION IS IGNORED

 ***WARNING: DEGREE OF FREEDOM 6 IS NOT ACTIVE ON NODE 4337 INSTANCE EULERIAN-1 
             - THIS BOUNDARY CONDITION IS IGNORED

 ***WARNING: DEGREE OF FREEDOM 4 IS NOT ACTIVE ON NODE 4338 INSTANCE EULERIAN-1 
             - THIS BOUNDARY CONDITION IS IGNORED

 ***WARNING: DEGREE OF FREEDOM 5 IS NOT ACTIVE ON NODE 4338 INSTANCE EULERIAN-1 
             - THIS BOUNDARY CONDITION IS IGNORED

 ***WARNING: DEGREE OF FREEDOM 6 IS NOT ACTIVE ON NODE 4338 INSTANCE EULERIAN-1 
             - THIS BOUNDARY CONDITION IS IGNORED

 ***WARNING: DEGREE OF FREEDOM 4 IS NOT ACTIVE ON NODE 4339 INSTANCE EULERIAN-1 
             - THIS BOUNDARY CONDITION IS IGNORED

 ***WARNING: DEGREE OF FREEDOM 5 IS NOT ACTIVE ON NODE 4339 INSTANCE EULERIAN-1 
             - THIS BOUNDARY CONDITION IS IGNORED

 ***WARNING: DEGREE OF FREEDOM 6 IS NOT ACTIVE ON NODE 4339 INSTANCE EULERIAN-1 
             - THIS BOUNDARY CONDITION IS IGNORED

 ***WARNING: DEGREE OF FREEDOM 4 IS NOT ACTIVE ON NODE 4340 INSTANCE EULERIAN-1 
             - THIS BOUNDARY CONDITION IS IGNORED

 ***WARNING: DEGREE OF FREEDOM 5 IS NOT ACTIVE ON NODE 4340 INSTANCE EULERIAN-1 
             - THIS BOUNDARY CONDITION IS IGNORED

 ***WARNING: DEGREE OF FREEDOM 6 IS NOT ACTIVE ON NODE 4340 INSTANCE EULERIAN-1 
             - THIS BOUNDARY CONDITION IS IGNORED

 ***WARNING: DEGREE OF FREEDOM 4 IS NOT ACTIVE ON NODE 4359 INSTANCE EULERIAN-1 
             - THIS BOUNDARY CONDITION IS IGNORED

 ***WARNING: DEGREE OF FREEDOM 5 IS NOT ACTIVE ON NODE 4359 INSTANCE EULERIAN-1 
             - THIS BOUNDARY CONDITION IS IGNORED

 ***WARNING: DEGREE OF FREEDOM 6 IS NOT ACTIVE ON NODE 4359 INSTANCE EULERIAN-1 
             - THIS BOUNDARY CONDITION IS IGNORED

 ***WARNING: DEGREE OF FREEDOM 4 IS NOT ACTIVE ON NODE 4360 INSTANCE EULERIAN-1 
             - THIS BOUNDARY CONDITION IS IGNORED

 ***WARNING: DEGREE OF FREEDOM 5 IS NOT ACTIVE ON NODE 4360 INSTANCE EULERIAN-1 
             - THIS BOUNDARY CONDITION IS IGNORED

 ***WARNING: DEGREE OF FREEDOM 6 IS NOT ACTIVE ON NODE 4360 INSTANCE EULERIAN-1 
             - THIS BOUNDARY CONDITION IS IGNORED

 ***WARNING: DEGREE OF FREEDOM 4 IS NOT ACTIVE ON NODE 4361 INSTANCE EULERIAN-1 
             - THIS BOUNDARY CONDITION IS IGNORED

 ***WARNING: DEGREE OF FREEDOM 5 IS NOT ACTIVE ON NODE 4361 INSTANCE EULERIAN-1 
             - THIS BOUNDARY CONDITION IS IGNORED

 ***WARNING: DEGREE OF FREEDOM 6 IS NOT ACTIVE ON NODE 4361 INSTANCE EULERIAN-1 
             - THIS BOUNDARY CONDITION IS IGNORED

 ***WARNING: DEGREE OF FREEDOM 4 IS NOT ACTIVE ON NODE 4362 INSTANCE EULERIAN-1 
             - THIS BOUNDARY CONDITION IS IGNORED

 ***WARNING: DEGREE OF FREEDOM 5 IS NOT ACTIVE ON NODE 4362 INSTANCE EULERIAN-1 
             - THIS BOUNDARY CONDITION IS IGNORED

 ***WARNING: DEGREE OF FREEDOM 6 IS NOT ACTIVE ON NODE 4362 INSTANCE EULERIAN-1 
             - THIS BOUNDARY CONDITION IS IGNORED

 ***WARNING: DEGREE OF FREEDOM 4 IS NOT ACTIVE ON NODE 4363 INSTANCE EULERIAN-1 
             - THIS BOUNDARY CONDITION IS IGNORED

 ***WARNING: DEGREE OF FREEDOM 5 IS NOT ACTIVE ON NODE 4363 INSTANCE EULERIAN-1 
             - THIS BOUNDARY CONDITION IS IGNORED

 ***WARNING: DEGREE OF FREEDOM 6 IS NOT ACTIVE ON NODE 4363 INSTANCE EULERIAN-1 
             - THIS BOUNDARY CONDITION IS IGNORED

 ***WARNING: DEGREE OF FREEDOM 4 IS NOT ACTIVE ON NODE 4364 INSTANCE EULERIAN-1 
             - THIS BOUNDARY CONDITION IS IGNORED

 ***WARNING: DEGREE OF FREEDOM 5 IS NOT ACTIVE ON NODE 4364 INSTANCE EULERIAN-1 
             - THIS BOUNDARY CONDITION IS IGNORED

 ***WARNING: DEGREE OF FREEDOM 6 IS NOT ACTIVE ON NODE 4364 INSTANCE EULERIAN-1 
             - THIS BOUNDARY CONDITION IS IGNORED

 ***WARNING: DEGREE OF FREEDOM 4 IS NOT ACTIVE ON NODE 4365 INSTANCE EULERIAN-1 
             - THIS BOUNDARY CONDITION IS IGNORED

 ***WARNING: DEGREE OF FREEDOM 5 IS NOT ACTIVE ON NODE 4365 INSTANCE EULERIAN-1 
             - THIS BOUNDARY CONDITION IS IGNORED

 ***WARNING: DEGREE OF FREEDOM 6 IS NOT ACTIVE ON NODE 4365 INSTANCE EULERIAN-1 
             - THIS BOUNDARY CONDITION IS IGNORED

 ***WARNING: DEGREE OF FREEDOM 4 IS NOT ACTIVE ON NODE 4366 INSTANCE EULERIAN-1 
             - THIS BOUNDARY CONDITION IS IGNORED

 ***WARNING: DEGREE OF FREEDOM 5 IS NOT ACTIVE ON NODE 4366 INSTANCE EULERIAN-1 
             - THIS BOUNDARY CONDITION IS IGNORED

 ***WARNING: DEGREE OF FREEDOM 6 IS NOT ACTIVE ON NODE 4366 INSTANCE EULERIAN-1 
             - THIS BOUNDARY CONDITION IS IGNORED

 ***WARNING: DEGREE OF FREEDOM 4 IS NOT ACTIVE ON NODE 4367 INSTANCE EULERIAN-1 
             - THIS BOUNDARY CONDITION IS IGNORED

 ***WARNING: DEGREE OF FREEDOM 5 IS NOT ACTIVE ON NODE 4367 INSTANCE EULERIAN-1 
             - THIS BOUNDARY CONDITION IS IGNORED

 ***WARNING: DEGREE OF FREEDOM 6 IS NOT ACTIVE ON NODE 4367 INSTANCE EULERIAN-1 
             - THIS BOUNDARY CONDITION IS IGNORED

 ***WARNING: DEGREE OF FREEDOM 4 IS NOT ACTIVE ON NODE 4368 INSTANCE EULERIAN-1 
             - THIS BOUNDARY CONDITION IS IGNORED

 ***WARNING: DEGREE OF FREEDOM 5 IS NOT ACTIVE ON NODE 4368 INSTANCE EULERIAN-1 
             - THIS BOUNDARY CONDITION IS IGNORED

 ***WARNING: DEGREE OF FREEDOM 6 IS NOT ACTIVE ON NODE 4368 INSTANCE EULERIAN-1 
             - THIS BOUNDARY CONDITION IS IGNORED

 ***WARNING: DEGREE OF FREEDOM 4 IS NOT ACTIVE ON NODE 4369 INSTANCE EULERIAN-1 
             - THIS BOUNDARY CONDITION IS IGNORED

 ***WARNING: DEGREE OF FREEDOM 5 IS NOT ACTIVE ON NODE 4369 INSTANCE EULERIAN-1 
             - THIS BOUNDARY CONDITION IS IGNORED

 ***WARNING: DEGREE OF FREEDOM 6 IS NOT ACTIVE ON NODE 4369 INSTANCE EULERIAN-1 
             - THIS BOUNDARY CONDITION IS IGNORED

 ***WARNING: DEGREE OF FREEDOM 4 IS NOT ACTIVE ON NODE 4370 INSTANCE EULERIAN-1 
             - THIS BOUNDARY CONDITION IS IGNORED

 ***WARNING: DEGREE OF FREEDOM 5 IS NOT ACTIVE ON NODE 4370 INSTANCE EULERIAN-1 
             - THIS BOUNDARY CONDITION IS IGNORED

 ***WARNING: DEGREE OF FREEDOM 6 IS NOT ACTIVE ON NODE 4370 INSTANCE EULERIAN-1 
             - THIS BOUNDARY CONDITION IS IGNORED

 ***WARNING: DEGREE OF FREEDOM 4 IS NOT ACTIVE ON NODE 4371 INSTANCE EULERIAN-1 
             - THIS BOUNDARY CONDITION IS IGNORED

 ***WARNING: DEGREE OF FREEDOM 5 IS NOT ACTIVE ON NODE 4371 INSTANCE EULERIAN-1 
             - THIS BOUNDARY CONDITION IS IGNORED

 ***WARNING: DEGREE OF FREEDOM 6 IS NOT ACTIVE ON NODE 4371 INSTANCE EULERIAN-1 
             - THIS BOUNDARY CONDITION IS IGNORED

 ***WARNING: DEGREE OF FREEDOM 4 IS NOT ACTIVE ON NODE 4372 INSTANCE EULERIAN-1 
             - THIS BOUNDARY CONDITION IS IGNORED

 ***WARNING: DEGREE OF FREEDOM 5 IS NOT ACTIVE ON NODE 4372 INSTANCE EULERIAN-1 
             - THIS BOUNDARY CONDITION IS IGNORED

 ***WARNING: DEGREE OF FREEDOM 6 IS NOT ACTIVE ON NODE 4372 INSTANCE EULERIAN-1 
             - THIS BOUNDARY CONDITION IS IGNORED

 ***WARNING: DEGREE OF FREEDOM 4 IS NOT ACTIVE ON NODE 4373 INSTANCE EULERIAN-1 
             - THIS BOUNDARY CONDITION IS IGNORED

 ***WARNING: DEGREE OF FREEDOM 5 IS NOT ACTIVE ON NODE 4373 INSTANCE EULERIAN-1 
             - THIS BOUNDARY CONDITION IS IGNORED

 ***WARNING: DEGREE OF FREEDOM 6 IS NOT ACTIVE ON NODE 4373 INSTANCE EULERIAN-1 
             - THIS BOUNDARY CONDITION IS IGNORED

 ***WARNING: DEGREE OF FREEDOM 4 IS NOT ACTIVE ON NODE 4374 INSTANCE EULERIAN-1 
             - THIS BOUNDARY CONDITION IS IGNORED

 ***WARNING: DEGREE OF FREEDOM 5 IS NOT ACTIVE ON NODE 4374 INSTANCE EULERIAN-1 
             - THIS BOUNDARY CONDITION IS IGNORED

 ***WARNING: DEGREE OF FREEDOM 6 IS NOT ACTIVE ON NODE 4374 INSTANCE EULERIAN-1 
             - THIS BOUNDARY CONDITION IS IGNORED

 ***WARNING: DEGREE OF FREEDOM 4 IS NOT ACTIVE ON NODE 4375 INSTANCE EULERIAN-1 
             - THIS BOUNDARY CONDITION IS IGNORED

 ***WARNING: DEGREE OF FREEDOM 5 IS NOT ACTIVE ON NODE 4375 INSTANCE EULERIAN-1 
             - THIS BOUNDARY CONDITION IS IGNORED

 ***WARNING: DEGREE OF FREEDOM 6 IS NOT ACTIVE ON NODE 4375 INSTANCE EULERIAN-1 
             - THIS BOUNDARY CONDITION IS IGNORED

 ***WARNING: DEGREE OF FREEDOM 4 IS NOT ACTIVE ON NODE 4376 INSTANCE EULERIAN-1 
             - THIS BOUNDARY CONDITION IS IGNORED

 ***WARNING: DEGREE OF FREEDOM 5 IS NOT ACTIVE ON NODE 4376 INSTANCE EULERIAN-1 
             - THIS BOUNDARY CONDITION IS IGNORED

 ***WARNING: DEGREE OF FREEDOM 6 IS NOT ACTIVE ON NODE 4376 INSTANCE EULERIAN-1 
             - THIS BOUNDARY CONDITION IS IGNORED

 ***WARNING: DEGREE OF FREEDOM 4 IS NOT ACTIVE ON NODE 4377 INSTANCE EULERIAN-1 
             - THIS BOUNDARY CONDITION IS IGNORED

 ***WARNING: DEGREE OF FREEDOM 5 IS NOT ACTIVE ON NODE 4377 INSTANCE EULERIAN-1 
             - THIS BOUNDARY CONDITION IS IGNORED

 ***WARNING: DEGREE OF FREEDOM 6 IS NOT ACTIVE ON NODE 4377 INSTANCE EULERIAN-1 
             - THIS BOUNDARY CONDITION IS IGNORED

 ***WARNING: DEGREE OF FREEDOM 4 IS NOT ACTIVE ON NODE 4378 INSTANCE EULERIAN-1 
             - THIS BOUNDARY CONDITION IS IGNORED

 ***WARNING: DEGREE OF FREEDOM 5 IS NOT ACTIVE ON NODE 4378 INSTANCE EULERIAN-1 
             - THIS BOUNDARY CONDITION IS IGNORED

 ***WARNING: DEGREE OF FREEDOM 6 IS NOT ACTIVE ON NODE 4378 INSTANCE EULERIAN-1 
             - THIS BOUNDARY CONDITION IS IGNORED

 ***WARNING: DEGREE OF FREEDOM 4 IS NOT ACTIVE ON NODE 4379 INSTANCE EULERIAN-1 
             - THIS BOUNDARY CONDITION IS IGNORED

 ***WARNING: DEGREE OF FREEDOM 5 IS NOT ACTIVE ON NODE 4379 INSTANCE EULERIAN-1 
             - THIS BOUNDARY CONDITION IS IGNORED

 ***WARNING: DEGREE OF FREEDOM 6 IS NOT ACTIVE ON NODE 4379 INSTANCE EULERIAN-1 
             - THIS BOUNDARY CONDITION IS IGNORED

 ***WARNING: DEGREE OF FREEDOM 4 IS NOT ACTIVE ON NODE 4380 INSTANCE EULERIAN-1 
             - THIS BOUNDARY CONDITION IS IGNORED

 ***WARNING: DEGREE OF FREEDOM 5 IS NOT ACTIVE ON NODE 4380 INSTANCE EULERIAN-1 
             - THIS BOUNDARY CONDITION IS IGNORED

 ***WARNING: DEGREE OF FREEDOM 6 IS NOT ACTIVE ON NODE 4380 INSTANCE EULERIAN-1 
             - THIS BOUNDARY CONDITION IS IGNORED

 ***WARNING: DEGREE OF FREEDOM 4 IS NOT ACTIVE ON NODE 4381 INSTANCE EULERIAN-1 
             - THIS BOUNDARY CONDITION IS IGNORED

 ***WARNING: DEGREE OF FREEDOM 5 IS NOT ACTIVE ON NODE 4381 INSTANCE EULERIAN-1 
             - THIS BOUNDARY CONDITION IS IGNORED

 ***WARNING: DEGREE OF FREEDOM 6 IS NOT ACTIVE ON NODE 4381 INSTANCE EULERIAN-1 
             - THIS BOUNDARY CONDITION IS IGNORED

 ***WARNING: DEGREE OF FREEDOM 4 IS NOT ACTIVE ON NODE 4382 INSTANCE EULERIAN-1 
             - THIS BOUNDARY CONDITION IS IGNORED

 ***WARNING: DEGREE OF FREEDOM 5 IS NOT ACTIVE ON NODE 4382 INSTANCE EULERIAN-1 
             - THIS BOUNDARY CONDITION IS IGNORED

 ***WARNING: DEGREE OF FREEDOM 6 IS NOT ACTIVE ON NODE 4382 INSTANCE EULERIAN-1 
             - THIS BOUNDARY CONDITION IS IGNORED

 ***WARNING: DEGREE OF FREEDOM 4 IS NOT ACTIVE ON NODE 4383 INSTANCE EULERIAN-1 
             - THIS BOUNDARY CONDITION IS IGNORED

 ***WARNING: DEGREE OF FREEDOM 5 IS NOT ACTIVE ON NODE 4383 INSTANCE EULERIAN-1 
             - THIS BOUNDARY CONDITION IS IGNORED

 ***WARNING: DEGREE OF FREEDOM 6 IS NOT ACTIVE ON NODE 4383 INSTANCE EULERIAN-1 
             - THIS BOUNDARY CONDITION IS IGNORED

 ***WARNING: DEGREE OF FREEDOM 4 IS NOT ACTIVE ON NODE 4384 INSTANCE EULERIAN-1 
             - THIS BOUNDARY CONDITION IS IGNORED

 ***WARNING: DEGREE OF FREEDOM 5 IS NOT ACTIVE ON NODE 4384 INSTANCE EULERIAN-1 
             - THIS BOUNDARY CONDITION IS IGNORED

 ***WARNING: DEGREE OF FREEDOM 6 IS NOT ACTIVE ON NODE 4384 INSTANCE EULERIAN-1 
             - THIS BOUNDARY CONDITION IS IGNORED

 ***WARNING: DEGREE OF FREEDOM 4 IS NOT ACTIVE ON NODE 4385 INSTANCE EULERIAN-1 
             - THIS BOUNDARY CONDITION IS IGNORED

 ***WARNING: DEGREE OF FREEDOM 5 IS NOT ACTIVE ON NODE 4385 INSTANCE EULERIAN-1 
             - THIS BOUNDARY CONDITION IS IGNORED

 ***WARNING: DEGREE OF FREEDOM 6 IS NOT ACTIVE ON NODE 4385 INSTANCE EULERIAN-1 
             - THIS BOUNDARY CONDITION IS IGNORED

 ***WARNING: DEGREE OF FREEDOM 4 IS NOT ACTIVE ON NODE 4386 INSTANCE EULERIAN-1 
             - THIS BOUNDARY CONDITION IS IGNORED

 ***WARNING: DEGREE OF FREEDOM 5 IS NOT ACTIVE ON NODE 4386 INSTANCE EULERIAN-1 
             - THIS BOUNDARY CONDITION IS IGNORED

 ***WARNING: DEGREE OF FREEDOM 6 IS NOT ACTIVE ON NODE 4386 INSTANCE EULERIAN-1 
             - THIS BOUNDARY CONDITION IS IGNORED

 ***WARNING: DEGREE OF FREEDOM 4 IS NOT ACTIVE ON NODE 4387 INSTANCE EULERIAN-1 
             - THIS BOUNDARY CONDITION IS IGNORED

 ***WARNING: DEGREE OF FREEDOM 5 IS NOT ACTIVE ON NODE 4387 INSTANCE EULERIAN-1 
             - THIS BOUNDARY CONDITION IS IGNORED

 ***WARNING: DEGREE OF FREEDOM 6 IS NOT ACTIVE ON NODE 4387 INSTANCE EULERIAN-1 
             - THIS BOUNDARY CONDITION IS IGNORED

 ***WARNING: DEGREE OF FREEDOM 4 IS NOT ACTIVE ON NODE 4388 INSTANCE EULERIAN-1 
             - THIS BOUNDARY CONDITION IS IGNORED

 ***WARNING: DEGREE OF FREEDOM 5 IS NOT ACTIVE ON NODE 4388 INSTANCE EULERIAN-1 
             - THIS BOUNDARY CONDITION IS IGNORED

 ***WARNING: DEGREE OF FREEDOM 6 IS NOT ACTIVE ON NODE 4388 INSTANCE EULERIAN-1 
             - THIS BOUNDARY CONDITION IS IGNORED

 ***WARNING: DEGREE OF FREEDOM 4 IS NOT ACTIVE ON NODE 4389 INSTANCE EULERIAN-1 
             - THIS BOUNDARY CONDITION IS IGNORED

 ***WARNING: DEGREE OF FREEDOM 5 IS NOT ACTIVE ON NODE 4389 INSTANCE EULERIAN-1 
             - THIS BOUNDARY CONDITION IS IGNORED

 ***WARNING: DEGREE OF FREEDOM 6 IS NOT ACTIVE ON NODE 4389 INSTANCE EULERIAN-1 
             - THIS BOUNDARY CONDITION IS IGNORED

 ***WARNING: DEGREE OF FREEDOM 4 IS NOT ACTIVE ON NODE 4390 INSTANCE EULERIAN-1 
             - THIS BOUNDARY CONDITION IS IGNORED

 ***WARNING: DEGREE OF FREEDOM 5 IS NOT ACTIVE ON NODE 4390 INSTANCE EULERIAN-1 
             - THIS BOUNDARY CONDITION IS IGNORED

 ***WARNING: DEGREE OF FREEDOM 6 IS NOT ACTIVE ON NODE 4390 INSTANCE EULERIAN-1 
             - THIS BOUNDARY CONDITION IS IGNORED

 ***WARNING: DEGREE OF FREEDOM 4 IS NOT ACTIVE ON NODE 4391 INSTANCE EULERIAN-1 
             - THIS BOUNDARY CONDITION IS IGNORED

 ***WARNING: DEGREE OF FREEDOM 5 IS NOT ACTIVE ON NODE 4391 INSTANCE EULERIAN-1 
             - THIS BOUNDARY CONDITION IS IGNORED

 ***WARNING: DEGREE OF FREEDOM 6 IS NOT ACTIVE ON NODE 4391 INSTANCE EULERIAN-1 
             - THIS BOUNDARY CONDITION IS IGNORED

 ***WARNING: DEGREE OF FREEDOM 4 IS NOT ACTIVE ON NODE 4392 INSTANCE EULERIAN-1 
             - THIS BOUNDARY CONDITION IS IGNORED

 ***WARNING: DEGREE OF FREEDOM 5 IS NOT ACTIVE ON NODE 4392 INSTANCE EULERIAN-1 
             - THIS BOUNDARY CONDITION IS IGNORED

 ***WARNING: DEGREE OF FREEDOM 6 IS NOT ACTIVE ON NODE 4392 INSTANCE EULERIAN-1 
             - THIS BOUNDARY CONDITION IS IGNORED

 ***WARNING: DEGREE OF FREEDOM 4 IS NOT ACTIVE ON NODE 4393 INSTANCE EULERIAN-1 
             - THIS BOUNDARY CONDITION IS IGNORED

 ***WARNING: DEGREE OF FREEDOM 5 IS NOT ACTIVE ON NODE 4393 INSTANCE EULERIAN-1 
             - THIS BOUNDARY CONDITION IS IGNORED

 ***WARNING: DEGREE OF FREEDOM 6 IS NOT ACTIVE ON NODE 4393 INSTANCE EULERIAN-1 
             - THIS BOUNDARY CONDITION IS IGNORED

 ***WARNING: DEGREE OF FREEDOM 4 IS NOT ACTIVE ON NODE 4394 INSTANCE EULERIAN-1 
             - THIS BOUNDARY CONDITION IS IGNORED

 ***WARNING: DEGREE OF FREEDOM 5 IS NOT ACTIVE ON NODE 4394 INSTANCE EULERIAN-1 
             - THIS BOUNDARY CONDITION IS IGNORED

 ***WARNING: DEGREE OF FREEDOM 6 IS NOT ACTIVE ON NODE 4394 INSTANCE EULERIAN-1 
             - THIS BOUNDARY CONDITION IS IGNORED

 ***WARNING: DEGREE OF FREEDOM 4 IS NOT ACTIVE ON NODE 4395 INSTANCE EULERIAN-1 
             - THIS BOUNDARY CONDITION IS IGNORED

 ***WARNING: DEGREE OF FREEDOM 5 IS NOT ACTIVE ON NODE 4395 INSTANCE EULERIAN-1 
             - THIS BOUNDARY CONDITION IS IGNORED

 ***WARNING: DEGREE OF FREEDOM 6 IS NOT ACTIVE ON NODE 4395 INSTANCE EULERIAN-1 
             - THIS BOUNDARY CONDITION IS IGNORED

 ***WARNING: DEGREE OF FREEDOM 4 IS NOT ACTIVE ON NODE 4396 INSTANCE EULERIAN-1 
             - THIS BOUNDARY CONDITION IS IGNORED

 ***WARNING: DEGREE OF FREEDOM 5 IS NOT ACTIVE ON NODE 4396 INSTANCE EULERIAN-1 
             - THIS BOUNDARY CONDITION IS IGNORED

 ***WARNING: DEGREE OF FREEDOM 6 IS NOT ACTIVE ON NODE 4396 INSTANCE EULERIAN-1 
             - THIS BOUNDARY CONDITION IS IGNORED

 ***WARNING: DEGREE OF FREEDOM 4 IS NOT ACTIVE ON NODE 4397 INSTANCE EULERIAN-1 
             - THIS BOUNDARY CONDITION IS IGNORED

 ***WARNING: DEGREE OF FREEDOM 5 IS NOT ACTIVE ON NODE 4397 INSTANCE EULERIAN-1 
             - THIS BOUNDARY CONDITION IS IGNORED

 ***WARNING: DEGREE OF FREEDOM 6 IS NOT ACTIVE ON NODE 4397 INSTANCE EULERIAN-1 
             - THIS BOUNDARY CONDITION IS IGNORED

 ***WARNING: DEGREE OF FREEDOM 4 IS NOT ACTIVE ON NODE 4398 INSTANCE EULERIAN-1 
             - THIS BOUNDARY CONDITION IS IGNORED

 ***WARNING: DEGREE OF FREEDOM 5 IS NOT ACTIVE ON NODE 4398 INSTANCE EULERIAN-1 
             - THIS BOUNDARY CONDITION IS IGNORED

 ***WARNING: DEGREE OF FREEDOM 6 IS NOT ACTIVE ON NODE 4398 INSTANCE EULERIAN-1 
             - THIS BOUNDARY CONDITION IS IGNORED

 ***WARNING: DEGREE OF FREEDOM 4 IS NOT ACTIVE ON NODE 4399 INSTANCE EULERIAN-1 
             - THIS BOUNDARY CONDITION IS IGNORED

 ***WARNING: DEGREE OF FREEDOM 5 IS NOT ACTIVE ON NODE 4399 INSTANCE EULERIAN-1 
             - THIS BOUNDARY CONDITION IS IGNORED

 ***WARNING: DEGREE OF FREEDOM 6 IS NOT ACTIVE ON NODE 4399 INSTANCE EULERIAN-1 
             - THIS BOUNDARY CONDITION IS IGNORED

 ***WARNING: DEGREE OF FREEDOM 4 IS NOT ACTIVE ON NODE 4975 INSTANCE EULERIAN-1 
             - THIS BOUNDARY CONDITION IS IGNORED

 ***WARNING: DEGREE OF FREEDOM 5 IS NOT ACTIVE ON NODE 4975 INSTANCE EULERIAN-1 
             - THIS BOUNDARY CONDITION IS IGNORED

 ***WARNING: DEGREE OF FREEDOM 6 IS NOT ACTIVE ON NODE 4975 INSTANCE EULERIAN-1 
             - THIS BOUNDARY CONDITION IS IGNORED

 ***WARNING: DEGREE OF FREEDOM 4 IS NOT ACTIVE ON NODE 4976 INSTANCE EULERIAN-1 
             - THIS BOUNDARY CONDITION IS IGNORED

 ***WARNING: DEGREE OF FREEDOM 5 IS NOT ACTIVE ON NODE 4976 INSTANCE EULERIAN-1 
             - THIS BOUNDARY CONDITION IS IGNORED

 ***WARNING: DEGREE OF FREEDOM 6 IS NOT ACTIVE ON NODE 4976 INSTANCE EULERIAN-1 
             - THIS BOUNDARY CONDITION IS IGNORED

 ***WARNING: DEGREE OF FREEDOM 4 IS NOT ACTIVE ON NODE 4977 INSTANCE EULERIAN-1 
             - THIS BOUNDARY CONDITION IS IGNORED

 ***WARNING: DEGREE OF FREEDOM 5 IS NOT ACTIVE ON NODE 4977 INSTANCE EULERIAN-1 
             - THIS BOUNDARY CONDITION IS IGNORED

 ***WARNING: DEGREE OF FREEDOM 6 IS NOT ACTIVE ON NODE 4977 INSTANCE EULERIAN-1 
             - THIS BOUNDARY CONDITION IS IGNORED

 ***WARNING: DEGREE OF FREEDOM 4 IS NOT ACTIVE ON NODE 4978 INSTANCE EULERIAN-1 
             - THIS BOUNDARY CONDITION IS IGNORED

 ***WARNING: DEGREE OF FREEDOM 5 IS NOT ACTIVE ON NODE 4978 INSTANCE EULERIAN-1 
             - THIS BOUNDARY CONDITION IS IGNORED

 ***WARNING: DEGREE OF FREEDOM 6 IS NOT ACTIVE ON NODE 4978 INSTANCE EULERIAN-1 
             - THIS BOUNDARY CONDITION IS IGNORED

 ***WARNING: DEGREE OF FREEDOM 4 IS NOT ACTIVE ON NODE 4979 INSTANCE EULERIAN-1 
             - THIS BOUNDARY CONDITION IS IGNORED

 ***WARNING: DEGREE OF FREEDOM 5 IS NOT ACTIVE ON NODE 4979 INSTANCE EULERIAN-1 
             - THIS BOUNDARY CONDITION IS IGNORED

 ***WARNING: DEGREE OF FREEDOM 6 IS NOT ACTIVE ON NODE 4979 INSTANCE EULERIAN-1 
             - THIS BOUNDARY CONDITION IS IGNORED

 ***WARNING: DEGREE OF FREEDOM 4 IS NOT ACTIVE ON NODE 4980 INSTANCE EULERIAN-1 
             - THIS BOUNDARY CONDITION IS IGNORED

 ***WARNING: DEGREE OF FREEDOM 5 IS NOT ACTIVE ON NODE 4980 INSTANCE EULERIAN-1 
             - THIS BOUNDARY CONDITION IS IGNORED

 ***WARNING: DEGREE OF FREEDOM 6 IS NOT ACTIVE ON NODE 4980 INSTANCE EULERIAN-1 
             - THIS BOUNDARY CONDITION IS IGNORED

 ***WARNING: DEGREE OF FREEDOM 4 IS NOT ACTIVE ON NODE 4981 INSTANCE EULERIAN-1 
             - THIS BOUNDARY CONDITION IS IGNORED

 ***WARNING: DEGREE OF FREEDOM 5 IS NOT ACTIVE ON NODE 4981 INSTANCE EULERIAN-1 
             - THIS BOUNDARY CONDITION IS IGNORED

 ***WARNING: DEGREE OF FREEDOM 6 IS NOT ACTIVE ON NODE 4981 INSTANCE EULERIAN-1 
             - THIS BOUNDARY CONDITION IS IGNORED

 ***WARNING: DEGREE OF FREEDOM 4 IS NOT ACTIVE ON NODE 4982 INSTANCE EULERIAN-1 
             - THIS BOUNDARY CONDITION IS IGNORED

 ***WARNING: DEGREE OF FREEDOM 5 IS NOT ACTIVE ON NODE 4982 INSTANCE EULERIAN-1 
             - THIS BOUNDARY CONDITION IS IGNORED

 ***WARNING: DEGREE OF FREEDOM 6 IS NOT ACTIVE ON NODE 4982 INSTANCE EULERIAN-1 
             - THIS BOUNDARY CONDITION IS IGNORED

 ***WARNING: DEGREE OF FREEDOM 4 IS NOT ACTIVE ON NODE 4983 INSTANCE EULERIAN-1 
             - THIS BOUNDARY CONDITION IS IGNORED

 ***WARNING: DEGREE OF FREEDOM 5 IS NOT ACTIVE ON NODE 4983 INSTANCE EULERIAN-1 
             - THIS BOUNDARY CONDITION IS IGNORED

 ***WARNING: DEGREE OF FREEDOM 6 IS NOT ACTIVE ON NODE 4983 INSTANCE EULERIAN-1 
             - THIS BOUNDARY CONDITION IS IGNORED

 ***WARNING: DEGREE OF FREEDOM 4 IS NOT ACTIVE ON NODE 4984 INSTANCE EULERIAN-1 
             - THIS BOUNDARY CONDITION IS IGNORED

 ***WARNING: DEGREE OF FREEDOM 5 IS NOT ACTIVE ON NODE 4984 INSTANCE EULERIAN-1 
             - THIS BOUNDARY CONDITION IS IGNORED

 ***WARNING: DEGREE OF FREEDOM 6 IS NOT ACTIVE ON NODE 4984 INSTANCE EULERIAN-1 
             - THIS BOUNDARY CONDITION IS IGNORED

 ***WARNING: DEGREE OF FREEDOM 4 IS NOT ACTIVE ON NODE 4985 INSTANCE EULERIAN-1 
             - THIS BOUNDARY CONDITION IS IGNORED

 ***WARNING: DEGREE OF FREEDOM 5 IS NOT ACTIVE ON NODE 4985 INSTANCE EULERIAN-1 
             - THIS BOUNDARY CONDITION IS IGNORED

 ***WARNING: DEGREE OF FREEDOM 6 IS NOT ACTIVE ON NODE 4985 INSTANCE EULERIAN-1 
             - THIS BOUNDARY CONDITION IS IGNORED

 ***WARNING: DEGREE OF FREEDOM 4 IS NOT ACTIVE ON NODE 4986 INSTANCE EULERIAN-1 
             - THIS BOUNDARY CONDITION IS IGNORED

 ***WARNING: DEGREE OF FREEDOM 5 IS NOT ACTIVE ON NODE 4986 INSTANCE EULERIAN-1 
             - THIS BOUNDARY CONDITION IS IGNORED

 ***WARNING: DEGREE OF FREEDOM 6 IS NOT ACTIVE ON NODE 4986 INSTANCE EULERIAN-1 
             - THIS BOUNDARY CONDITION IS IGNORED

 ***WARNING: DEGREE OF FREEDOM 4 IS NOT ACTIVE ON NODE 4987 INSTANCE EULERIAN-1 
             - THIS BOUNDARY CONDITION IS IGNORED

 ***WARNING: DEGREE OF FREEDOM 5 IS NOT ACTIVE ON NODE 4987 INSTANCE EULERIAN-1 
             - THIS BOUNDARY CONDITION IS IGNORED

 ***WARNING: DEGREE OF FREEDOM 6 IS NOT ACTIVE ON NODE 4987 INSTANCE EULERIAN-1 
             - THIS BOUNDARY CONDITION IS IGNORED

 ***WARNING: DEGREE OF FREEDOM 4 IS NOT ACTIVE ON NODE 4988 INSTANCE EULERIAN-1 
             - THIS BOUNDARY CONDITION IS IGNORED

 ***WARNING: DEGREE OF FREEDOM 5 IS NOT ACTIVE ON NODE 4988 INSTANCE EULERIAN-1 
             - THIS BOUNDARY CONDITION IS IGNORED

 ***WARNING: DEGREE OF FREEDOM 6 IS NOT ACTIVE ON NODE 4988 INSTANCE EULERIAN-1 
             - THIS BOUNDARY CONDITION IS IGNORED

 ***WARNING: DEGREE OF FREEDOM 4 IS NOT ACTIVE ON NODE 4989 INSTANCE EULERIAN-1 
             - THIS BOUNDARY CONDITION IS IGNORED

 ***WARNING: DEGREE OF FREEDOM 5 IS NOT ACTIVE ON NODE 4989 INSTANCE EULERIAN-1 
             - THIS BOUNDARY CONDITION IS IGNORED

 ***WARNING: DEGREE OF FREEDOM 6 IS NOT ACTIVE ON NODE 4989 INSTANCE EULERIAN-1 
             - THIS BOUNDARY CONDITION IS IGNORED

 ***WARNING: DEGREE OF FREEDOM 4 IS NOT ACTIVE ON NODE 4990 INSTANCE EULERIAN-1 
             - THIS BOUNDARY CONDITION IS IGNORED

 ***WARNING: DEGREE OF FREEDOM 5 IS NOT ACTIVE ON NODE 4990 INSTANCE EULERIAN-1 
             - THIS BOUNDARY CONDITION IS IGNORED

 ***WARNING: DEGREE OF FREEDOM 6 IS NOT ACTIVE ON NODE 4990 INSTANCE EULERIAN-1 
             - THIS BOUNDARY CONDITION IS IGNORED

 ***WARNING: DEGREE OF FREEDOM 4 IS NOT ACTIVE ON NODE 4991 INSTANCE EULERIAN-1 
             - THIS BOUNDARY CONDITION IS IGNORED

 ***WARNING: DEGREE OF FREEDOM 5 IS NOT ACTIVE ON NODE 4991 INSTANCE EULERIAN-1 
             - THIS BOUNDARY CONDITION IS IGNORED

 ***WARNING: DEGREE OF FREEDOM 6 IS NOT ACTIVE ON NODE 4991 INSTANCE EULERIAN-1 
             - THIS BOUNDARY CONDITION IS IGNORED

 ***WARNING: DEGREE OF FREEDOM 4 IS NOT ACTIVE ON NODE 4992 INSTANCE EULERIAN-1 
             - THIS BOUNDARY CONDITION IS IGNORED

 ***WARNING: DEGREE OF FREEDOM 5 IS NOT ACTIVE ON NODE 4992 INSTANCE EULERIAN-1 
             - THIS BOUNDARY CONDITION IS IGNORED

 ***WARNING: DEGREE OF FREEDOM 6 IS NOT ACTIVE ON NODE 4992 INSTANCE EULERIAN-1 
             - THIS BOUNDARY CONDITION IS IGNORED

 ***WARNING: DEGREE OF FREEDOM 4 IS NOT ACTIVE ON NODE 4993 INSTANCE EULERIAN-1 
             - THIS BOUNDARY CONDITION IS IGNORED

 ***WARNING: DEGREE OF FREEDOM 5 IS NOT ACTIVE ON NODE 4993 INSTANCE EULERIAN-1 
             - THIS BOUNDARY CONDITION IS IGNORED

 ***WARNING: DEGREE OF FREEDOM 6 IS NOT ACTIVE ON NODE 4993 INSTANCE EULERIAN-1 
             - THIS BOUNDARY CONDITION IS IGNORED

 ***WARNING: DEGREE OF FREEDOM 4 IS NOT ACTIVE ON NODE 4994 INSTANCE EULERIAN-1 
             - THIS BOUNDARY CONDITION IS IGNORED

 ***WARNING: DEGREE OF FREEDOM 5 IS NOT ACTIVE ON NODE 4994 INSTANCE EULERIAN-1 
             - THIS BOUNDARY CONDITION IS IGNORED

 ***WARNING: DEGREE OF FREEDOM 6 IS NOT ACTIVE ON NODE 4994 INSTANCE EULERIAN-1 
             - THIS BOUNDARY CONDITION IS IGNORED

 ***WARNING: DEGREE OF FREEDOM 4 IS NOT ACTIVE ON NODE 4995 INSTANCE EULERIAN-1 
             - THIS BOUNDARY CONDITION IS IGNORED

 ***WARNING: DEGREE OF FREEDOM 5 IS NOT ACTIVE ON NODE 4995 INSTANCE EULERIAN-1 
             - THIS BOUNDARY CONDITION IS IGNORED

 ***WARNING: DEGREE OF FREEDOM 6 IS NOT ACTIVE ON NODE 4995 INSTANCE EULERIAN-1 
             - THIS BOUNDARY CONDITION IS IGNORED

 ***WARNING: DEGREE OF FREEDOM 4 IS NOT ACTIVE ON NODE 4996 INSTANCE EULERIAN-1 
             - THIS BOUNDARY CONDITION IS IGNORED

 ***WARNING: DEGREE OF FREEDOM 5 IS NOT ACTIVE ON NODE 4996 INSTANCE EULERIAN-1 
             - THIS BOUNDARY CONDITION IS IGNORED

 ***WARNING: DEGREE OF FREEDOM 6 IS NOT ACTIVE ON NODE 4996 INSTANCE EULERIAN-1 
             - THIS BOUNDARY CONDITION IS IGNORED

 ***WARNING: DEGREE OF FREEDOM 4 IS NOT ACTIVE ON NODE 4997 INSTANCE EULERIAN-1 
             - THIS BOUNDARY CONDITION IS IGNORED

 ***WARNING: DEGREE OF FREEDOM 5 IS NOT ACTIVE ON NODE 4997 INSTANCE EULERIAN-1 
             - THIS BOUNDARY CONDITION IS IGNORED

 ***WARNING: DEGREE OF FREEDOM 6 IS NOT ACTIVE ON NODE 4997 INSTANCE EULERIAN-1 
             - THIS BOUNDARY CONDITION IS IGNORED

 ***WARNING: DEGREE OF FREEDOM 4 IS NOT ACTIVE ON NODE 4998 INSTANCE EULERIAN-1 
             - THIS BOUNDARY CONDITION IS IGNORED

 ***WARNING: DEGREE OF FREEDOM 5 IS NOT ACTIVE ON NODE 4998 INSTANCE EULERIAN-1 
             - THIS BOUNDARY CONDITION IS IGNORED

 ***WARNING: DEGREE OF FREEDOM 6 IS NOT ACTIVE ON NODE 4998 INSTANCE EULERIAN-1 
             - THIS BOUNDARY CONDITION IS IGNORED

 ***WARNING: DEGREE OF FREEDOM 4 IS NOT ACTIVE ON NODE 4999 INSTANCE EULERIAN-1 
             - THIS BOUNDARY CONDITION IS IGNORED

 ***WARNING: DEGREE OF FREEDOM 5 IS NOT ACTIVE ON NODE 4999 INSTANCE EULERIAN-1 
             - THIS BOUNDARY CONDITION IS IGNORED

 ***WARNING: DEGREE OF FREEDOM 6 IS NOT ACTIVE ON NODE 4999 INSTANCE EULERIAN-1 
             - THIS BOUNDARY CONDITION IS IGNORED

 ***WARNING: DEGREE OF FREEDOM 4 IS NOT ACTIVE ON NODE 5000 INSTANCE EULERIAN-1 
             - THIS BOUNDARY CONDITION IS IGNORED

 ***WARNING: DEGREE OF FREEDOM 5 IS NOT ACTIVE ON NODE 5000 INSTANCE EULERIAN-1 
             - THIS BOUNDARY CONDITION IS IGNORED

 ***WARNING: DEGREE OF FREEDOM 6 IS NOT ACTIVE ON NODE 5000 INSTANCE EULERIAN-1 
             - THIS BOUNDARY CONDITION IS IGNORED

 ***WARNING: DEGREE OF FREEDOM 4 IS NOT ACTIVE ON NODE 5001 INSTANCE EULERIAN-1 
             - THIS BOUNDARY CONDITION IS IGNORED

 ***WARNING: DEGREE OF FREEDOM 5 IS NOT ACTIVE ON NODE 5001 INSTANCE EULERIAN-1 
             - THIS BOUNDARY CONDITION IS IGNORED

 ***WARNING: DEGREE OF FREEDOM 6 IS NOT ACTIVE ON NODE 5001 INSTANCE EULERIAN-1 
             - THIS BOUNDARY CONDITION IS IGNORED

 ***WARNING: DEGREE OF FREEDOM 4 IS NOT ACTIVE ON NODE 5002 INSTANCE EULERIAN-1 
             - THIS BOUNDARY CONDITION IS IGNORED

 ***WARNING: DEGREE OF FREEDOM 5 IS NOT ACTIVE ON NODE 5002 INSTANCE EULERIAN-1 
             - THIS BOUNDARY CONDITION IS IGNORED

 ***WARNING: DEGREE OF FREEDOM 6 IS NOT ACTIVE ON NODE 5002 INSTANCE EULERIAN-1 
             - THIS BOUNDARY CONDITION IS IGNORED

 ***WARNING: DEGREE OF FREEDOM 4 IS NOT ACTIVE ON NODE 5003 INSTANCE EULERIAN-1 
             - THIS BOUNDARY CONDITION IS IGNORED

 ***WARNING: DEGREE OF FREEDOM 5 IS NOT ACTIVE ON NODE 5003 INSTANCE EULERIAN-1 
             - THIS BOUNDARY CONDITION IS IGNORED

 ***WARNING: DEGREE OF FREEDOM 6 IS NOT ACTIVE ON NODE 5003 INSTANCE EULERIAN-1 
             - THIS BOUNDARY CONDITION IS IGNORED

 ***WARNING: DEGREE OF FREEDOM 4 IS NOT ACTIVE ON NODE 5004 INSTANCE EULERIAN-1 
             - THIS BOUNDARY CONDITION IS IGNORED

 ***WARNING: DEGREE OF FREEDOM 5 IS NOT ACTIVE ON NODE 5004 INSTANCE EULERIAN-1 
             - THIS BOUNDARY CONDITION IS IGNORED

 ***WARNING: DEGREE OF FREEDOM 6 IS NOT ACTIVE ON NODE 5004 INSTANCE EULERIAN-1 
             - THIS BOUNDARY CONDITION IS IGNORED

 ***WARNING: DEGREE OF FREEDOM 4 IS NOT ACTIVE ON NODE 5005 INSTANCE EULERIAN-1 
             - THIS BOUNDARY CONDITION IS IGNORED

 ***WARNING: DEGREE OF FREEDOM 5 IS NOT ACTIVE ON NODE 5005 INSTANCE EULERIAN-1 
             - THIS BOUNDARY CONDITION IS IGNORED

 ***WARNING: DEGREE OF FREEDOM 6 IS NOT ACTIVE ON NODE 5005 INSTANCE EULERIAN-1 
             - THIS BOUNDARY CONDITION IS IGNORED

 ***WARNING: DEGREE OF FREEDOM 4 IS NOT ACTIVE ON NODE 5006 INSTANCE EULERIAN-1 
             - THIS BOUNDARY CONDITION IS IGNORED

 ***WARNING: DEGREE OF FREEDOM 5 IS NOT ACTIVE ON NODE 5006 INSTANCE EULERIAN-1 
             - THIS BOUNDARY CONDITION IS IGNORED

 ***WARNING: DEGREE OF FREEDOM 6 IS NOT ACTIVE ON NODE 5006 INSTANCE EULERIAN-1 
             - THIS BOUNDARY CONDITION IS IGNORED

 ***WARNING: DEGREE OF FREEDOM 4 IS NOT ACTIVE ON NODE 5007 INSTANCE EULERIAN-1 
             - THIS BOUNDARY CONDITION IS IGNORED

 ***WARNING: DEGREE OF FREEDOM 5 IS NOT ACTIVE ON NODE 5007 INSTANCE EULERIAN-1 
             - THIS BOUNDARY CONDITION IS IGNORED

 ***WARNING: DEGREE OF FREEDOM 6 IS NOT ACTIVE ON NODE 5007 INSTANCE EULERIAN-1 
             - THIS BOUNDARY CONDITION IS IGNORED

 ***WARNING: DEGREE OF FREEDOM 4 IS NOT ACTIVE ON NODE 5008 INSTANCE EULERIAN-1 
             - THIS BOUNDARY CONDITION IS IGNORED

 ***WARNING: DEGREE OF FREEDOM 5 IS NOT ACTIVE ON NODE 5008 INSTANCE EULERIAN-1 
             - THIS BOUNDARY CONDITION IS IGNORED

 ***WARNING: DEGREE OF FREEDOM 6 IS NOT ACTIVE ON NODE 5008 INSTANCE EULERIAN-1 
             - THIS BOUNDARY CONDITION IS IGNORED

 ***WARNING: DEGREE OF FREEDOM 4 IS NOT ACTIVE ON NODE 5009 INSTANCE EULERIAN-1 
             - THIS BOUNDARY CONDITION IS IGNORED

 ***WARNING: DEGREE OF FREEDOM 5 IS NOT ACTIVE ON NODE 5009 INSTANCE EULERIAN-1 
             - THIS BOUNDARY CONDITION IS IGNORED

 ***WARNING: DEGREE OF FREEDOM 6 IS NOT ACTIVE ON NODE 5009 INSTANCE EULERIAN-1 
             - THIS BOUNDARY CONDITION IS IGNORED

 ***WARNING: DEGREE OF FREEDOM 4 IS NOT ACTIVE ON NODE 5010 INSTANCE EULERIAN-1 
             - THIS BOUNDARY CONDITION IS IGNORED

 ***WARNING: DEGREE OF FREEDOM 5 IS NOT ACTIVE ON NODE 5010 INSTANCE EULERIAN-1 
             - THIS BOUNDARY CONDITION IS IGNORED

 ***WARNING: DEGREE OF FREEDOM 6 IS NOT ACTIVE ON NODE 5010 INSTANCE EULERIAN-1 
             - THIS BOUNDARY CONDITION IS IGNORED

 ***WARNING: DEGREE OF FREEDOM 4 IS NOT ACTIVE ON NODE 5011 INSTANCE EULERIAN-1 
             - THIS BOUNDARY CONDITION IS IGNORED

 ***WARNING: DEGREE OF FREEDOM 5 IS NOT ACTIVE ON NODE 5011 INSTANCE EULERIAN-1 
             - THIS BOUNDARY CONDITION IS IGNORED

 ***WARNING: DEGREE OF FREEDOM 6 IS NOT ACTIVE ON NODE 5011 INSTANCE EULERIAN-1 
             - THIS BOUNDARY CONDITION IS IGNORED

 ***WARNING: DEGREE OF FREEDOM 4 IS NOT ACTIVE ON NODE 5012 INSTANCE EULERIAN-1 
             - THIS BOUNDARY CONDITION IS IGNORED

 ***WARNING: DEGREE OF FREEDOM 5 IS NOT ACTIVE ON NODE 5012 INSTANCE EULERIAN-1 
             - THIS BOUNDARY CONDITION IS IGNORED

 ***WARNING: DEGREE OF FREEDOM 6 IS NOT ACTIVE ON NODE 5012 INSTANCE EULERIAN-1 
             - THIS BOUNDARY CONDITION IS IGNORED

 ***WARNING: DEGREE OF FREEDOM 4 IS NOT ACTIVE ON NODE 5013 INSTANCE EULERIAN-1 
             - THIS BOUNDARY CONDITION IS IGNORED

 ***WARNING: DEGREE OF FREEDOM 5 IS NOT ACTIVE ON NODE 5013 INSTANCE EULERIAN-1 
             - THIS BOUNDARY CONDITION IS IGNORED

 ***WARNING: DEGREE OF FREEDOM 6 IS NOT ACTIVE ON NODE 5013 INSTANCE EULERIAN-1 
             - THIS BOUNDARY CONDITION IS IGNORED

 ***WARNING: DEGREE OF FREEDOM 4 IS NOT ACTIVE ON NODE 5014 INSTANCE EULERIAN-1 
             - THIS BOUNDARY CONDITION IS IGNORED

 ***WARNING: DEGREE OF FREEDOM 5 IS NOT ACTIVE ON NODE 5014 INSTANCE EULERIAN-1 
             - THIS BOUNDARY CONDITION IS IGNORED

 ***WARNING: DEGREE OF FREEDOM 6 IS NOT ACTIVE ON NODE 5014 INSTANCE EULERIAN-1 
             - THIS BOUNDARY CONDITION IS IGNORED

 ***WARNING: DEGREE OF FREEDOM 4 IS NOT ACTIVE ON NODE 5015 INSTANCE EULERIAN-1 
             - THIS BOUNDARY CONDITION IS IGNORED

 ***WARNING: DEGREE OF FREEDOM 5 IS NOT ACTIVE ON NODE 5015 INSTANCE EULERIAN-1 
             - THIS BOUNDARY CONDITION IS IGNORED

 ***WARNING: DEGREE OF FREEDOM 6 IS NOT ACTIVE ON NODE 5015 INSTANCE EULERIAN-1 
             - THIS BOUNDARY CONDITION IS IGNORED

 ***WARNING: DEGREE OF FREEDOM 4 IS NOT ACTIVE ON NODE 5016 INSTANCE EULERIAN-1 
             - THIS BOUNDARY CONDITION IS IGNORED

 ***WARNING: DEGREE OF FREEDOM 5 IS NOT ACTIVE ON NODE 5016 INSTANCE EULERIAN-1 
             - THIS BOUNDARY CONDITION IS IGNORED

 ***WARNING: DEGREE OF FREEDOM 6 IS NOT ACTIVE ON NODE 5016 INSTANCE EULERIAN-1 
             - THIS BOUNDARY CONDITION IS IGNORED

 ***WARNING: DEGREE OF FREEDOM 4 IS NOT ACTIVE ON NODE 5017 INSTANCE EULERIAN-1 
             - THIS BOUNDARY CONDITION IS IGNORED

 ***WARNING: DEGREE OF FREEDOM 5 IS NOT ACTIVE ON NODE 5017 INSTANCE EULERIAN-1 
             - THIS BOUNDARY CONDITION IS IGNORED

 ***WARNING: DEGREE OF FREEDOM 6 IS NOT ACTIVE ON NODE 5017 INSTANCE EULERIAN-1 
             - THIS BOUNDARY CONDITION IS IGNORED

 ***WARNING: DEGREE OF FREEDOM 4 IS NOT ACTIVE ON NODE 5018 INSTANCE EULERIAN-1 
             - THIS BOUNDARY CONDITION IS IGNORED

 ***WARNING: DEGREE OF FREEDOM 5 IS NOT ACTIVE ON NODE 5018 INSTANCE EULERIAN-1 
             - THIS BOUNDARY CONDITION IS IGNORED

 ***WARNING: DEGREE OF FREEDOM 6 IS NOT ACTIVE ON NODE 5018 INSTANCE EULERIAN-1 
             - THIS BOUNDARY CONDITION IS IGNORED

 ***WARNING: DEGREE OF FREEDOM 4 IS NOT ACTIVE ON NODE 5019 INSTANCE EULERIAN-1 
             - THIS BOUNDARY CONDITION IS IGNORED

 ***WARNING: DEGREE OF FREEDOM 5 IS NOT ACTIVE ON NODE 5019 INSTANCE EULERIAN-1 
             - THIS BOUNDARY CONDITION IS IGNORED

 ***WARNING: DEGREE OF FREEDOM 6 IS NOT ACTIVE ON NODE 5019 INSTANCE EULERIAN-1 
             - THIS BOUNDARY CONDITION IS IGNORED

 ***WARNING: DEGREE OF FREEDOM 4 IS NOT ACTIVE ON NODE 5020 INSTANCE EULERIAN-1 
             - THIS BOUNDARY CONDITION IS IGNORED

 ***WARNING: DEGREE OF FREEDOM 5 IS NOT ACTIVE ON NODE 5020 INSTANCE EULERIAN-1 
             - THIS BOUNDARY CONDITION IS IGNORED

 ***WARNING: DEGREE OF FREEDOM 6 IS NOT ACTIVE ON NODE 5020 INSTANCE EULERIAN-1 
             - THIS BOUNDARY CONDITION IS IGNORED

 ***WARNING: DEGREE OF FREEDOM 4 IS NOT ACTIVE ON NODE 5021 INSTANCE EULERIAN-1 
             - THIS BOUNDARY CONDITION IS IGNORED

 ***WARNING: DEGREE OF FREEDOM 5 IS NOT ACTIVE ON NODE 5021 INSTANCE EULERIAN-1 
             - THIS BOUNDARY CONDITION IS IGNORED

 ***WARNING: DEGREE OF FREEDOM 6 IS NOT ACTIVE ON NODE 5021 INSTANCE EULERIAN-1 
             - THIS BOUNDARY CONDITION IS IGNORED

 ***WARNING: DEGREE OF FREEDOM 4 IS NOT ACTIVE ON NODE 5022 INSTANCE EULERIAN-1 
             - THIS BOUNDARY CONDITION IS IGNORED

 ***WARNING: DEGREE OF FREEDOM 5 IS NOT ACTIVE ON NODE 5022 INSTANCE EULERIAN-1 
             - THIS BOUNDARY CONDITION IS IGNORED

 ***WARNING: DEGREE OF FREEDOM 6 IS NOT ACTIVE ON NODE 5022 INSTANCE EULERIAN-1 
             - THIS BOUNDARY CONDITION IS IGNORED

 ***WARNING: DEGREE OF FREEDOM 4 IS NOT ACTIVE ON NODE 5023 INSTANCE EULERIAN-1 
             - THIS BOUNDARY CONDITION IS IGNORED

 ***WARNING: DEGREE OF FREEDOM 5 IS NOT ACTIVE ON NODE 5023 INSTANCE EULERIAN-1 
             - THIS BOUNDARY CONDITION IS IGNORED

 ***WARNING: DEGREE OF FREEDOM 6 IS NOT ACTIVE ON NODE 5023 INSTANCE EULERIAN-1 
             - THIS BOUNDARY CONDITION IS IGNORED

 ***WARNING: DEGREE OF FREEDOM 4 IS NOT ACTIVE ON NODE 5024 INSTANCE EULERIAN-1 
             - THIS BOUNDARY CONDITION IS IGNORED

 ***WARNING: DEGREE OF FREEDOM 5 IS NOT ACTIVE ON NODE 5024 INSTANCE EULERIAN-1 
             - THIS BOUNDARY CONDITION IS IGNORED

 ***WARNING: DEGREE OF FREEDOM 6 IS NOT ACTIVE ON NODE 5024 INSTANCE EULERIAN-1 
             - THIS BOUNDARY CONDITION IS IGNORED

 ***WARNING: DEGREE OF FREEDOM 4 IS NOT ACTIVE ON NODE 5025 INSTANCE EULERIAN-1 
             - THIS BOUNDARY CONDITION IS IGNORED

 ***WARNING: DEGREE OF FREEDOM 5 IS NOT ACTIVE ON NODE 5025 INSTANCE EULERIAN-1 
             - THIS BOUNDARY CONDITION IS IGNORED

 ***WARNING: DEGREE OF FREEDOM 6 IS NOT ACTIVE ON NODE 5025 INSTANCE EULERIAN-1 
             - THIS BOUNDARY CONDITION IS IGNORED

 ***WARNING: DEGREE OF FREEDOM 4 IS NOT ACTIVE ON NODE 5026 INSTANCE EULERIAN-1 
             - THIS BOUNDARY CONDITION IS IGNORED

 ***WARNING: DEGREE OF FREEDOM 5 IS NOT ACTIVE ON NODE 5026 INSTANCE EULERIAN-1 
             - THIS BOUNDARY CONDITION IS IGNORED

 ***WARNING: DEGREE OF FREEDOM 6 IS NOT ACTIVE ON NODE 5026 INSTANCE EULERIAN-1 
             - THIS BOUNDARY CONDITION IS IGNORED

 ***WARNING: DEGREE OF FREEDOM 4 IS NOT ACTIVE ON NODE 5027 INSTANCE EULERIAN-1 
             - THIS BOUNDARY CONDITION IS IGNORED

 ***WARNING: DEGREE OF FREEDOM 5 IS NOT ACTIVE ON NODE 5027 INSTANCE EULERIAN-1 
             - THIS BOUNDARY CONDITION IS IGNORED

 ***WARNING: DEGREE OF FREEDOM 6 IS NOT ACTIVE ON NODE 5027 INSTANCE EULERIAN-1 
             - THIS BOUNDARY CONDITION IS IGNORED

 ***WARNING: DEGREE OF FREEDOM 4 IS NOT ACTIVE ON NODE 5028 INSTANCE EULERIAN-1 
             - THIS BOUNDARY CONDITION IS IGNORED

 ***WARNING: DEGREE OF FREEDOM 5 IS NOT ACTIVE ON NODE 5028 INSTANCE EULERIAN-1 
             - THIS BOUNDARY CONDITION IS IGNORED

 ***WARNING: DEGREE OF FREEDOM 6 IS NOT ACTIVE ON NODE 5028 INSTANCE EULERIAN-1 
             - THIS BOUNDARY CONDITION IS IGNORED

 ***WARNING: DEGREE OF FREEDOM 4 IS NOT ACTIVE ON NODE 5029 INSTANCE EULERIAN-1 
             - THIS BOUNDARY CONDITION IS IGNORED

 ***WARNING: DEGREE OF FREEDOM 5 IS NOT ACTIVE ON NODE 5029 INSTANCE EULERIAN-1 
             - THIS BOUNDARY CONDITION IS IGNORED

 ***WARNING: DEGREE OF FREEDOM 6 IS NOT ACTIVE ON NODE 5029 INSTANCE EULERIAN-1 
             - THIS BOUNDARY CONDITION IS IGNORED

 ***WARNING: DEGREE OF FREEDOM 4 IS NOT ACTIVE ON NODE 5030 INSTANCE EULERIAN-1 
             - THIS BOUNDARY CONDITION IS IGNORED

 ***WARNING: DEGREE OF FREEDOM 5 IS NOT ACTIVE ON NODE 5030 INSTANCE EULERIAN-1 
             - THIS BOUNDARY CONDITION IS IGNORED

 ***WARNING: DEGREE OF FREEDOM 6 IS NOT ACTIVE ON NODE 5030 INSTANCE EULERIAN-1 
             - THIS BOUNDARY CONDITION IS IGNORED

 ***WARNING: DEGREE OF FREEDOM 4 IS NOT ACTIVE ON NODE 5031 INSTANCE EULERIAN-1 
             - THIS BOUNDARY CONDITION IS IGNORED

 ***WARNING: DEGREE OF FREEDOM 5 IS NOT ACTIVE ON NODE 5031 INSTANCE EULERIAN-1 
             - THIS BOUNDARY CONDITION IS IGNORED

 ***WARNING: DEGREE OF FREEDOM 6 IS NOT ACTIVE ON NODE 5031 INSTANCE EULERIAN-1 
             - THIS BOUNDARY CONDITION IS IGNORED

 ***WARNING: DEGREE OF FREEDOM 4 IS NOT ACTIVE ON NODE 5032 INSTANCE EULERIAN-1 
             - THIS BOUNDARY CONDITION IS IGNORED

 ***WARNING: DEGREE OF FREEDOM 5 IS NOT ACTIVE ON NODE 5032 INSTANCE EULERIAN-1 
             - THIS BOUNDARY CONDITION IS IGNORED

 ***WARNING: DEGREE OF FREEDOM 6 IS NOT ACTIVE ON NODE 5032 INSTANCE EULERIAN-1 
             - THIS BOUNDARY CONDITION IS IGNORED

 ***WARNING: DEGREE OF FREEDOM 4 IS NOT ACTIVE ON NODE 5033 INSTANCE EULERIAN-1 
             - THIS BOUNDARY CONDITION IS IGNORED

 ***WARNING: DEGREE OF FREEDOM 5 IS NOT ACTIVE ON NODE 5033 INSTANCE EULERIAN-1 
             - THIS BOUNDARY CONDITION IS IGNORED

 ***WARNING: DEGREE OF FREEDOM 6 IS NOT ACTIVE ON NODE 5033 INSTANCE EULERIAN-1 
             - THIS BOUNDARY CONDITION IS IGNORED

 ***WARNING: DEGREE OF FREEDOM 4 IS NOT ACTIVE ON NODE 5034 INSTANCE EULERIAN-1 
             - THIS BOUNDARY CONDITION IS IGNORED

 ***WARNING: DEGREE OF FREEDOM 5 IS NOT ACTIVE ON NODE 5034 INSTANCE EULERIAN-1 
             - THIS BOUNDARY CONDITION IS IGNORED

 ***WARNING: DEGREE OF FREEDOM 6 IS NOT ACTIVE ON NODE 5034 INSTANCE EULERIAN-1 
             - THIS BOUNDARY CONDITION IS IGNORED

 ***WARNING: DEGREE OF FREEDOM 4 IS NOT ACTIVE ON NODE 5035 INSTANCE EULERIAN-1 
             - THIS BOUNDARY CONDITION IS IGNORED

 ***WARNING: DEGREE OF FREEDOM 5 IS NOT ACTIVE ON NODE 5035 INSTANCE EULERIAN-1 
             - THIS BOUNDARY CONDITION IS IGNORED

 ***WARNING: DEGREE OF FREEDOM 6 IS NOT ACTIVE ON NODE 5035 INSTANCE EULERIAN-1 
             - THIS BOUNDARY CONDITION IS IGNORED

 ***WARNING: DEGREE OF FREEDOM 4 IS NOT ACTIVE ON NODE 5036 INSTANCE EULERIAN-1 
             - THIS BOUNDARY CONDITION IS IGNORED

 ***WARNING: DEGREE OF FREEDOM 5 IS NOT ACTIVE ON NODE 5036 INSTANCE EULERIAN-1 
             - THIS BOUNDARY CONDITION IS IGNORED

 ***WARNING: DEGREE OF FREEDOM 6 IS NOT ACTIVE ON NODE 5036 INSTANCE EULERIAN-1 
             - THIS BOUNDARY CONDITION IS IGNORED

 ***WARNING: DEGREE OF FREEDOM 4 IS NOT ACTIVE ON NODE 5037 INSTANCE EULERIAN-1 
             - THIS BOUNDARY CONDITION IS IGNORED

 ***WARNING: DEGREE OF FREEDOM 5 IS NOT ACTIVE ON NODE 5037 INSTANCE EULERIAN-1 
             - THIS BOUNDARY CONDITION IS IGNORED

 ***WARNING: DEGREE OF FREEDOM 6 IS NOT ACTIVE ON NODE 5037 INSTANCE EULERIAN-1 
             - THIS BOUNDARY CONDITION IS IGNORED

 ***WARNING: DEGREE OF FREEDOM 4 IS NOT ACTIVE ON NODE 5038 INSTANCE EULERIAN-1 
             - THIS BOUNDARY CONDITION IS IGNORED

 ***WARNING: DEGREE OF FREEDOM 5 IS NOT ACTIVE ON NODE 5038 INSTANCE EULERIAN-1 
             - THIS BOUNDARY CONDITION IS IGNORED

 ***WARNING: DEGREE OF FREEDOM 6 IS NOT ACTIVE ON NODE 5038 INSTANCE EULERIAN-1 
             - THIS BOUNDARY CONDITION IS IGNORED

 ***WARNING: DEGREE OF FREEDOM 4 IS NOT ACTIVE ON NODE 5039 INSTANCE EULERIAN-1 
             - THIS BOUNDARY CONDITION IS IGNORED

 ***WARNING: DEGREE OF FREEDOM 5 IS NOT ACTIVE ON NODE 5039 INSTANCE EULERIAN-1 
             - THIS BOUNDARY CONDITION IS IGNORED

 ***WARNING: DEGREE OF FREEDOM 6 IS NOT ACTIVE ON NODE 5039 INSTANCE EULERIAN-1 
             - THIS BOUNDARY CONDITION IS IGNORED

 ***WARNING: DEGREE OF FREEDOM 4 IS NOT ACTIVE ON NODE 5040 INSTANCE EULERIAN-1 
             - THIS BOUNDARY CONDITION IS IGNORED

 ***WARNING: DEGREE OF FREEDOM 5 IS NOT ACTIVE ON NODE 5040 INSTANCE EULERIAN-1 
             - THIS BOUNDARY CONDITION IS IGNORED

 ***WARNING: DEGREE OF FREEDOM 6 IS NOT ACTIVE ON NODE 5040 INSTANCE EULERIAN-1 
             - THIS BOUNDARY CONDITION IS IGNORED

 ***WARNING: DEGREE OF FREEDOM 4 IS NOT ACTIVE ON NODE 5041 INSTANCE EULERIAN-1 
             - THIS BOUNDARY CONDITION IS IGNORED

 ***WARNING: DEGREE OF FREEDOM 5 IS NOT ACTIVE ON NODE 5041 INSTANCE EULERIAN-1 
             - THIS BOUNDARY CONDITION IS IGNORED

 ***WARNING: DEGREE OF FREEDOM 6 IS NOT ACTIVE ON NODE 5041 INSTANCE EULERIAN-1 
             - THIS BOUNDARY CONDITION IS IGNORED

 ***WARNING: DEGREE OF FREEDOM 4 IS NOT ACTIVE ON NODE 5042 INSTANCE EULERIAN-1 
             - THIS BOUNDARY CONDITION IS IGNORED

 ***WARNING: DEGREE OF FREEDOM 5 IS NOT ACTIVE ON NODE 5042 INSTANCE EULERIAN-1 
             - THIS BOUNDARY CONDITION IS IGNORED

 ***WARNING: DEGREE OF FREEDOM 6 IS NOT ACTIVE ON NODE 5042 INSTANCE EULERIAN-1 
             - THIS BOUNDARY CONDITION IS IGNORED

 ***WARNING: DEGREE OF FREEDOM 4 IS NOT ACTIVE ON NODE 5043 INSTANCE EULERIAN-1 
             - THIS BOUNDARY CONDITION IS IGNORED

 ***WARNING: DEGREE OF FREEDOM 5 IS NOT ACTIVE ON NODE 5043 INSTANCE EULERIAN-1 
             - THIS BOUNDARY CONDITION IS IGNORED

 ***WARNING: DEGREE OF FREEDOM 6 IS NOT ACTIVE ON NODE 5043 INSTANCE EULERIAN-1 
             - THIS BOUNDARY CONDITION IS IGNORED

 ***WARNING: DEGREE OF FREEDOM 4 IS NOT ACTIVE ON NODE 5044 INSTANCE EULERIAN-1 
             - THIS BOUNDARY CONDITION IS IGNORED

 ***WARNING: DEGREE OF FREEDOM 5 IS NOT ACTIVE ON NODE 5044 INSTANCE EULERIAN-1 
             - THIS BOUNDARY CONDITION IS IGNORED

 ***WARNING: DEGREE OF FREEDOM 6 IS NOT ACTIVE ON NODE 5044 INSTANCE EULERIAN-1 
             - THIS BOUNDARY CONDITION IS IGNORED

 ***WARNING: DEGREE OF FREEDOM 4 IS NOT ACTIVE ON NODE 5045 INSTANCE EULERIAN-1 
             - THIS BOUNDARY CONDITION IS IGNORED

 ***WARNING: DEGREE OF FREEDOM 5 IS NOT ACTIVE ON NODE 5045 INSTANCE EULERIAN-1 
             - THIS BOUNDARY CONDITION IS IGNORED

 ***WARNING: DEGREE OF FREEDOM 6 IS NOT ACTIVE ON NODE 5045 INSTANCE EULERIAN-1 
             - THIS BOUNDARY CONDITION IS IGNORED

 ***WARNING: DEGREE OF FREEDOM 4 IS NOT ACTIVE ON NODE 5046 INSTANCE EULERIAN-1 
             - THIS BOUNDARY CONDITION IS IGNORED

 ***WARNING: DEGREE OF FREEDOM 5 IS NOT ACTIVE ON NODE 5046 INSTANCE EULERIAN-1 
             - THIS BOUNDARY CONDITION IS IGNORED

 ***WARNING: DEGREE OF FREEDOM 6 IS NOT ACTIVE ON NODE 5046 INSTANCE EULERIAN-1 
             - THIS BOUNDARY CONDITION IS IGNORED

 ***WARNING: DEGREE OF FREEDOM 4 IS NOT ACTIVE ON NODE 5047 INSTANCE EULERIAN-1 
             - THIS BOUNDARY CONDITION IS IGNORED

 ***WARNING: DEGREE OF FREEDOM 5 IS NOT ACTIVE ON NODE 5047 INSTANCE EULERIAN-1 
             - THIS BOUNDARY CONDITION IS IGNORED

 ***WARNING: DEGREE OF FREEDOM 6 IS NOT ACTIVE ON NODE 5047 INSTANCE EULERIAN-1 
             - THIS BOUNDARY CONDITION IS IGNORED

 ***WARNING: DEGREE OF FREEDOM 4 IS NOT ACTIVE ON NODE 5048 INSTANCE EULERIAN-1 
             - THIS BOUNDARY CONDITION IS IGNORED

 ***WARNING: DEGREE OF FREEDOM 5 IS NOT ACTIVE ON NODE 5048 INSTANCE EULERIAN-1 
             - THIS BOUNDARY CONDITION IS IGNORED

 ***WARNING: DEGREE OF FREEDOM 6 IS NOT ACTIVE ON NODE 5048 INSTANCE EULERIAN-1 
             - THIS BOUNDARY CONDITION IS IGNORED

 ***WARNING: DEGREE OF FREEDOM 4 IS NOT ACTIVE ON NODE 5049 INSTANCE EULERIAN-1 
             - THIS BOUNDARY CONDITION IS IGNORED

 ***WARNING: DEGREE OF FREEDOM 5 IS NOT ACTIVE ON NODE 5049 INSTANCE EULERIAN-1 
             - THIS BOUNDARY CONDITION IS IGNORED

 ***WARNING: DEGREE OF FREEDOM 6 IS NOT ACTIVE ON NODE 5049 INSTANCE EULERIAN-1 
             - THIS BOUNDARY CONDITION IS IGNORED

 ***WARNING: DEGREE OF FREEDOM 4 IS NOT ACTIVE ON NODE 5050 INSTANCE EULERIAN-1 
             - THIS BOUNDARY CONDITION IS IGNORED

 ***WARNING: DEGREE OF FREEDOM 5 IS NOT ACTIVE ON NODE 5050 INSTANCE EULERIAN-1 
             - THIS BOUNDARY CONDITION IS IGNORED

 ***WARNING: DEGREE OF FREEDOM 6 IS NOT ACTIVE ON NODE 5050 INSTANCE EULERIAN-1 
             - THIS BOUNDARY CONDITION IS IGNORED

 ***WARNING: DEGREE OF FREEDOM 4 IS NOT ACTIVE ON NODE 5051 INSTANCE EULERIAN-1 
             - THIS BOUNDARY CONDITION IS IGNORED

 ***WARNING: DEGREE OF FREEDOM 5 IS NOT ACTIVE ON NODE 5051 INSTANCE EULERIAN-1 
             - THIS BOUNDARY CONDITION IS IGNORED

 ***WARNING: DEGREE OF FREEDOM 6 IS NOT ACTIVE ON NODE 5051 INSTANCE EULERIAN-1 
             - THIS BOUNDARY CONDITION IS IGNORED

 ***WARNING: DEGREE OF FREEDOM 4 IS NOT ACTIVE ON NODE 5052 INSTANCE EULERIAN-1 
             - THIS BOUNDARY CONDITION IS IGNORED

 ***WARNING: DEGREE OF FREEDOM 5 IS NOT ACTIVE ON NODE 5052 INSTANCE EULERIAN-1 
             - THIS BOUNDARY CONDITION IS IGNORED

 ***WARNING: DEGREE OF FREEDOM 6 IS NOT ACTIVE ON NODE 5052 INSTANCE EULERIAN-1 
             - THIS BOUNDARY CONDITION IS IGNORED

 ***WARNING: DEGREE OF FREEDOM 4 IS NOT ACTIVE ON NODE 5053 INSTANCE EULERIAN-1 
             - THIS BOUNDARY CONDITION IS IGNORED

 ***WARNING: DEGREE OF FREEDOM 5 IS NOT ACTIVE ON NODE 5053 INSTANCE EULERIAN-1 
             - THIS BOUNDARY CONDITION IS IGNORED

 ***WARNING: DEGREE OF FREEDOM 6 IS NOT ACTIVE ON NODE 5053 INSTANCE EULERIAN-1 
             - THIS BOUNDARY CONDITION IS IGNORED

 ***WARNING: DEGREE OF FREEDOM 4 IS NOT ACTIVE ON NODE 5054 INSTANCE EULERIAN-1 
             - THIS BOUNDARY CONDITION IS IGNORED

 ***WARNING: DEGREE OF FREEDOM 5 IS NOT ACTIVE ON NODE 5054 INSTANCE EULERIAN-1 
             - THIS BOUNDARY CONDITION IS IGNORED

 ***WARNING: DEGREE OF FREEDOM 6 IS NOT ACTIVE ON NODE 5054 INSTANCE EULERIAN-1 
             - THIS BOUNDARY CONDITION IS IGNORED

 ***WARNING: DEGREE OF FREEDOM 4 IS NOT ACTIVE ON NODE 5055 INSTANCE EULERIAN-1 
             - THIS BOUNDARY CONDITION IS IGNORED

 ***WARNING: DEGREE OF FREEDOM 5 IS NOT ACTIVE ON NODE 5055 INSTANCE EULERIAN-1 
             - THIS BOUNDARY CONDITION IS IGNORED

 ***WARNING: DEGREE OF FREEDOM 6 IS NOT ACTIVE ON NODE 5055 INSTANCE EULERIAN-1 
             - THIS BOUNDARY CONDITION IS IGNORED

[...]
             - THIS BOUNDARY CONDITION IS IGNORED

 ***WARNING: DEGREE OF FREEDOM 4 IS NOT ACTIVE ON NODE 6519 INSTANCE EULERIAN-1 
             - THIS BOUNDARY CONDITION IS IGNORED

 ***WARNING: DEGREE OF FREEDOM 5 IS NOT ACTIVE ON NODE 6519 INSTANCE EULERIAN-1 
             - THIS BOUNDARY CONDITION IS IGNORED

 ***WARNING: DEGREE OF FREEDOM 6 IS NOT ACTIVE ON NODE 6519 INSTANCE EULERIAN-1 
             - THIS BOUNDARY CONDITION IS IGNORED

 ***WARNING: DEGREE OF FREEDOM 4 IS NOT ACTIVE ON NODE 6520 INSTANCE EULERIAN-1 
             - THIS BOUNDARY CONDITION IS IGNORED

 ***WARNING: DEGREE OF FREEDOM 5 IS NOT ACTIVE ON NODE 6520 INSTANCE EULERIAN-1 
             - THIS BOUNDARY CONDITION IS IGNORED

 ***WARNING: DEGREE OF FREEDOM 6 IS NOT ACTIVE ON NODE 6520 INSTANCE EULERIAN-1 
             - THIS BOUNDARY CONDITION IS IGNORED

 ***WARNING: DEGREE OF FREEDOM 4 IS NOT ACTIVE ON NODE 6521 INSTANCE EULERIAN-1 
             - THIS BOUNDARY CONDITION IS IGNORED

 ***WARNING: DEGREE OF FREEDOM 5 IS NOT ACTIVE ON NODE 6521 INSTANCE EULERIAN-1 
             - THIS BOUNDARY CONDITION IS IGNORED

 ***WARNING: DEGREE OF FREEDOM 6 IS NOT ACTIVE ON NODE 6521 INSTANCE EULERIAN-1 
             - THIS BOUNDARY CONDITION IS IGNORED

 ***WARNING: DEGREE OF FREEDOM 4 IS NOT ACTIVE ON NODE 6522 INSTANCE EULERIAN-1 
             - THIS BOUNDARY CONDITION IS IGNORED

 ***WARNING: DEGREE OF FREEDOM 5 IS NOT ACTIVE ON NODE 6522 INSTANCE EULERIAN-1 
             - THIS BOUNDARY CONDITION IS IGNORED

 ***WARNING: DEGREE OF FREEDOM 6 IS NOT ACTIVE ON NODE 6522 INSTANCE EULERIAN-1 
             - THIS BOUNDARY CONDITION IS IGNORED

 ***WARNING: DEGREE OF FREEDOM 4 IS NOT ACTIVE ON NODE 6523 INSTANCE EULERIAN-1 
             - THIS BOUNDARY CONDITION IS IGNORED

 ***WARNING: DEGREE OF FREEDOM 5 IS NOT ACTIVE ON NODE 6523 INSTANCE EULERIAN-1 
             - THIS BOUNDARY CONDITION IS IGNORED

 ***WARNING: DEGREE OF FREEDOM 6 IS NOT ACTIVE ON NODE 6523 INSTANCE EULERIAN-1 
             - THIS BOUNDARY CONDITION IS IGNORED

 ***WARNING: DEGREE OF FREEDOM 4 IS NOT ACTIVE ON NODE 6524 INSTANCE EULERIAN-1 
             - THIS BOUNDARY CONDITION IS IGNORED

 ***WARNING: DEGREE OF FREEDOM 5 IS NOT ACTIVE ON NODE 6524 INSTANCE EULERIAN-1 
             - THIS BOUNDARY CONDITION IS IGNORED

 ***WARNING: DEGREE OF FREEDOM 6 IS NOT ACTIVE ON NODE 6524 INSTANCE EULERIAN-1 
             - THIS BOUNDARY CONDITION IS IGNORED

 ***WARNING: DEGREE OF FREEDOM 4 IS NOT ACTIVE ON NODE 6525 INSTANCE EULERIAN-1 
             - THIS BOUNDARY CONDITION IS IGNORED

 ***WARNING: DEGREE OF FREEDOM 5 IS NOT ACTIVE ON NODE 6525 INSTANCE EULERIAN-1 
             - THIS BOUNDARY CONDITION IS IGNORED

 ***WARNING: DEGREE OF FREEDOM 6 IS NOT ACTIVE ON NODE 6525 INSTANCE EULERIAN-1 
             - THIS BOUNDARY CONDITION IS IGNORED

 ***WARNING: DEGREE OF FREEDOM 4 IS NOT ACTIVE ON NODE 6526 INSTANCE EULERIAN-1 
             - THIS BOUNDARY CONDITION IS IGNORED

 ***WARNING: DEGREE OF FREEDOM 5 IS NOT ACTIVE ON NODE 6526 INSTANCE EULERIAN-1 
             - THIS BOUNDARY CONDITION IS IGNORED

 ***WARNING: DEGREE OF FREEDOM 6 IS NOT ACTIVE ON NODE 6526 INSTANCE EULERIAN-1 
             - THIS BOUNDARY CONDITION IS IGNORED

 ***WARNING: DEGREE OF FREEDOM 4 IS NOT ACTIVE ON NODE 6527 INSTANCE EULERIAN-1 
             - THIS BOUNDARY CONDITION IS IGNORED

 ***WARNING: DEGREE OF FREEDOM 5 IS NOT ACTIVE ON NODE 6527 INSTANCE EULERIAN-1 
             - THIS BOUNDARY CONDITION IS IGNORED

 ***WARNING: DEGREE OF FREEDOM 6 IS NOT ACTIVE ON NODE 6527 INSTANCE EULERIAN-1 
             - THIS BOUNDARY CONDITION IS IGNORED

 ***WARNING: DEGREE OF FREEDOM 4 IS NOT ACTIVE ON NODE 6528 INSTANCE EULERIAN-1 
             - THIS BOUNDARY CONDITION IS IGNORED

 ***WARNING: DEGREE OF FREEDOM 5 IS NOT ACTIVE ON NODE 6528 INSTANCE EULERIAN-1 
             - THIS BOUNDARY CONDITION IS IGNORED

 ***WARNING: DEGREE OF FREEDOM 6 IS NOT ACTIVE ON NODE 6528 INSTANCE EULERIAN-1 
             - THIS BOUNDARY CONDITION IS IGNORED

 ***WARNING: DEGREE OF FREEDOM 4 IS NOT ACTIVE ON NODE 6529 INSTANCE EULERIAN-1 
             - THIS BOUNDARY CONDITION IS IGNORED

 ***WARNING: DEGREE OF FREEDOM 5 IS NOT ACTIVE ON NODE 6529 INSTANCE EULERIAN-1 
             - THIS BOUNDARY CONDITION IS IGNORED

 ***WARNING: DEGREE OF FREEDOM 6 IS NOT ACTIVE ON NODE 6529 INSTANCE EULERIAN-1 
             - THIS BOUNDARY CONDITION IS IGNORED

 ***WARNING: DEGREE OF FREEDOM 4 IS NOT ACTIVE ON NODE 6530 INSTANCE EULERIAN-1 
             - THIS BOUNDARY CONDITION IS IGNORED

 ***WARNING: DEGREE OF FREEDOM 5 IS NOT ACTIVE ON NODE 6530 INSTANCE EULERIAN-1 
             - THIS BOUNDARY CONDITION IS IGNORED

 ***WARNING: DEGREE OF FREEDOM 6 IS NOT ACTIVE ON NODE 6530 INSTANCE EULERIAN-1 
             - THIS BOUNDARY CONDITION IS IGNORED

 ***WARNING: DEGREE OF FREEDOM 4 IS NOT ACTIVE ON NODE 6531 INSTANCE EULERIAN-1 
             - THIS BOUNDARY CONDITION IS IGNORED

 ***WARNING: DEGREE OF FREEDOM 5 IS NOT ACTIVE ON NODE 6531 INSTANCE EULERIAN-1 
             - THIS BOUNDARY CONDITION IS IGNORED

 ***WARNING: DEGREE OF FREEDOM 6 IS NOT ACTIVE ON NODE 6531 INSTANCE EULERIAN-1 
             - THIS BOUNDARY CONDITION IS IGNORED

 ***WARNING: DEGREE OF FREEDOM 4 IS NOT ACTIVE ON NODE 6532 INSTANCE EULERIAN-1 
             - THIS BOUNDARY CONDITION IS IGNORED

 ***WARNING: DEGREE OF FREEDOM 5 IS NOT ACTIVE ON NODE 6532 INSTANCE EULERIAN-1 
             - THIS BOUNDARY CONDITION IS IGNORED

 ***WARNING: DEGREE OF FREEDOM 6 IS NOT ACTIVE ON NODE 6532 INSTANCE EULERIAN-1 
             - THIS BOUNDARY CONDITION IS IGNORED

 ***WARNING: DEGREE OF FREEDOM 4 IS NOT ACTIVE ON NODE 6533 INSTANCE EULERIAN-1 
             - THIS BOUNDARY CONDITION IS IGNORED

 ***WARNING: DEGREE OF FREEDOM 5 IS NOT ACTIVE ON NODE 6533 INSTANCE EULERIAN-1 
             - THIS BOUNDARY CONDITION IS IGNORED

 ***WARNING: DEGREE OF FREEDOM 6 IS NOT ACTIVE ON NODE 6533 INSTANCE EULERIAN-1 
             - THIS BOUNDARY CONDITION IS IGNORED

 ***WARNING: DEGREE OF FREEDOM 4 IS NOT ACTIVE ON NODE 6534 INSTANCE EULERIAN-1 
             - THIS BOUNDARY CONDITION IS IGNORED

 ***WARNING: DEGREE OF FREEDOM 5 IS NOT ACTIVE ON NODE 6534 INSTANCE EULERIAN-1 
             - THIS BOUNDARY CONDITION IS IGNORED

 ***WARNING: DEGREE OF FREEDOM 6 IS NOT ACTIVE ON NODE 6534 INSTANCE EULERIAN-1 
             - THIS BOUNDARY CONDITION IS IGNORED

 ***WARNING: DEGREE OF FREEDOM 4 IS NOT ACTIVE ON NODE 6535 INSTANCE EULERIAN-1 
             - THIS BOUNDARY CONDITION IS IGNORED

 ***WARNING: DEGREE OF FREEDOM 5 IS NOT ACTIVE ON NODE 6535 INSTANCE EULERIAN-1 
             - THIS BOUNDARY CONDITION IS IGNORED

 ***WARNING: DEGREE OF FREEDOM 6 IS NOT ACTIVE ON NODE 6535 INSTANCE EULERIAN-1 
             - THIS BOUNDARY CONDITION IS IGNORED

 ***WARNING: DEGREE OF FREEDOM 4 IS NOT ACTIVE ON NODE 6536 INSTANCE EULERIAN-1 
             - THIS BOUNDARY CONDITION IS IGNORED

 ***WARNING: DEGREE OF FREEDOM 5 IS NOT ACTIVE ON NODE 6536 INSTANCE EULERIAN-1 
             - THIS BOUNDARY CONDITION IS IGNORED

 ***WARNING: DEGREE OF FREEDOM 6 IS NOT ACTIVE ON NODE 6536 INSTANCE EULERIAN-1 
             - THIS BOUNDARY CONDITION IS IGNORED

 ***WARNING: DEGREE OF FREEDOM 4 IS NOT ACTIVE ON NODE 6537 INSTANCE EULERIAN-1 
             - THIS BOUNDARY CONDITION IS IGNORED

 ***WARNING: DEGREE OF FREEDOM 5 IS NOT ACTIVE ON NODE 6537 INSTANCE EULERIAN-1 
             - THIS BOUNDARY CONDITION IS IGNORED

 ***WARNING: DEGREE OF FREEDOM 6 IS NOT ACTIVE ON NODE 6537 INSTANCE EULERIAN-1 
             - THIS BOUNDARY CONDITION IS IGNORED

 ***WARNING: DEGREE OF FREEDOM 4 IS NOT ACTIVE ON NODE 6538 INSTANCE EULERIAN-1 
             - THIS BOUNDARY CONDITION IS IGNORED

 ***WARNING: DEGREE OF FREEDOM 5 IS NOT ACTIVE ON NODE 6538 INSTANCE EULERIAN-1 
             - THIS BOUNDARY CONDITION IS IGNORED

 ***WARNING: DEGREE OF FREEDOM 6 IS NOT ACTIVE ON NODE 6538 INSTANCE EULERIAN-1 
             - THIS BOUNDARY CONDITION IS IGNORED

 ***WARNING: DEGREE OF FREEDOM 4 IS NOT ACTIVE ON NODE 6539 INSTANCE EULERIAN-1 
             - THIS BOUNDARY CONDITION IS IGNORED

 ***WARNING: DEGREE OF FREEDOM 5 IS NOT ACTIVE ON NODE 6539 INSTANCE EULERIAN-1 
             - THIS BOUNDARY CONDITION IS IGNORED

 ***WARNING: DEGREE OF FREEDOM 6 IS NOT ACTIVE ON NODE 6539 INSTANCE EULERIAN-1 
             - THIS BOUNDARY CONDITION IS IGNORED

 ***WARNING: DEGREE OF FREEDOM 4 IS NOT ACTIVE ON NODE 6540 INSTANCE EULERIAN-1 
             - THIS BOUNDARY CONDITION IS IGNORED

 ***WARNING: DEGREE OF FREEDOM 5 IS NOT ACTIVE ON NODE 6540 INSTANCE EULERIAN-1 
             - THIS BOUNDARY CONDITION IS IGNORED

 ***WARNING: DEGREE OF FREEDOM 6 IS NOT ACTIVE ON NODE 6540 INSTANCE EULERIAN-1 
             - THIS BOUNDARY CONDITION IS IGNORED

 ***WARNING: DEGREE OF FREEDOM 4 IS NOT ACTIVE ON NODE 6541 INSTANCE EULERIAN-1 
             - THIS BOUNDARY CONDITION IS IGNORED

 ***WARNING: DEGREE OF FREEDOM 5 IS NOT ACTIVE ON NODE 6541 INSTANCE EULERIAN-1 
             - THIS BOUNDARY CONDITION IS IGNORED

 ***WARNING: DEGREE OF FREEDOM 6 IS NOT ACTIVE ON NODE 6541 INSTANCE EULERIAN-1 
             - THIS BOUNDARY CONDITION IS IGNORED

 ***WARNING: DEGREE OF FREEDOM 4 IS NOT ACTIVE ON NODE 6542 INSTANCE EULERIAN-1 
             - THIS BOUNDARY CONDITION IS IGNORED

 ***WARNING: DEGREE OF FREEDOM 5 IS NOT ACTIVE ON NODE 6542 INSTANCE EULERIAN-1 
             - THIS BOUNDARY CONDITION IS IGNORED

 ***WARNING: DEGREE OF FREEDOM 6 IS NOT ACTIVE ON NODE 6542 INSTANCE EULERIAN-1 
             - THIS BOUNDARY CONDITION IS IGNORED

 ***WARNING: DEGREE OF FREEDOM 4 IS NOT ACTIVE ON NODE 6543 INSTANCE EULERIAN-1 
             - THIS BOUNDARY CONDITION IS IGNORED

 ***WARNING: DEGREE OF FREEDOM 5 IS NOT ACTIVE ON NODE 6543 INSTANCE EULERIAN-1 
             - THIS BOUNDARY CONDITION IS IGNORED

 ***WARNING: DEGREE OF FREEDOM 6 IS NOT ACTIVE ON NODE 6543 INSTANCE EULERIAN-1 
             - THIS BOUNDARY CONDITION IS IGNORED

 ***WARNING: DEGREE OF FREEDOM 4 IS NOT ACTIVE ON NODE 6544 INSTANCE EULERIAN-1 
             - THIS BOUNDARY CONDITION IS IGNORED

 ***WARNING: DEGREE OF FREEDOM 5 IS NOT ACTIVE ON NODE 6544 INSTANCE EULERIAN-1 
             - THIS BOUNDARY CONDITION IS IGNORED

 ***WARNING: DEGREE OF FREEDOM 6 IS NOT ACTIVE ON NODE 6544 INSTANCE EULERIAN-1 
             - THIS BOUNDARY CONDITION IS IGNORED

 ***WARNING: DEGREE OF FREEDOM 4 IS NOT ACTIVE ON NODE 6545 INSTANCE EULERIAN-1 
             - THIS BOUNDARY CONDITION IS IGNORED

 ***WARNING: DEGREE OF FREEDOM 5 IS NOT ACTIVE ON NODE 6545 INSTANCE EULERIAN-1 
             - THIS BOUNDARY CONDITION IS IGNORED

 ***WARNING: DEGREE OF FREEDOM 6 IS NOT ACTIVE ON NODE 6545 INSTANCE EULERIAN-1 
             - THIS BOUNDARY CONDITION IS IGNORED

 ***WARNING: DEGREE OF FREEDOM 4 IS NOT ACTIVE ON NODE 6546 INSTANCE EULERIAN-1 
             - THIS BOUNDARY CONDITION IS IGNORED

 ***WARNING: DEGREE OF FREEDOM 5 IS NOT ACTIVE ON NODE 6546 INSTANCE EULERIAN-1 
             - THIS BOUNDARY CONDITION IS IGNORED

 ***WARNING: DEGREE OF FREEDOM 6 IS NOT ACTIVE ON NODE 6546 INSTANCE EULERIAN-1 
             - THIS BOUNDARY CONDITION IS IGNORED

 ***WARNING: DEGREE OF FREEDOM 4 IS NOT ACTIVE ON NODE 6547 INSTANCE EULERIAN-1 
             - THIS BOUNDARY CONDITION IS IGNORED

 ***WARNING: DEGREE OF FREEDOM 5 IS NOT ACTIVE ON NODE 6547 INSTANCE EULERIAN-1 
             - THIS BOUNDARY CONDITION IS IGNORED

 ***WARNING: DEGREE OF FREEDOM 6 IS NOT ACTIVE ON NODE 6547 INSTANCE EULERIAN-1 
             - THIS BOUNDARY CONDITION IS IGNORED

 ***WARNING: DEGREE OF FREEDOM 4 IS NOT ACTIVE ON NODE 6548 INSTANCE EULERIAN-1 
             - THIS BOUNDARY CONDITION IS IGNORED

 ***WARNING: DEGREE OF FREEDOM 5 IS NOT ACTIVE ON NODE 6548 INSTANCE EULERIAN-1 
             - THIS BOUNDARY CONDITION IS IGNORED

 ***WARNING: DEGREE OF FREEDOM 6 IS NOT ACTIVE ON NODE 6548 INSTANCE EULERIAN-1 
             - THIS BOUNDARY CONDITION IS IGNORED

 ***WARNING: DEGREE OF FREEDOM 4 IS NOT ACTIVE ON NODE 6549 INSTANCE EULERIAN-1 
             - THIS BOUNDARY CONDITION IS IGNORED

 ***WARNING: DEGREE OF FREEDOM 5 IS NOT ACTIVE ON NODE 6549 INSTANCE EULERIAN-1 
             - THIS BOUNDARY CONDITION IS IGNORED

 ***WARNING: DEGREE OF FREEDOM 6 IS NOT ACTIVE ON NODE 6549 INSTANCE EULERIAN-1 
             - THIS BOUNDARY CONDITION IS IGNORED

 ***WARNING: DEGREE OF FREEDOM 4 IS NOT ACTIVE ON NODE 6550 INSTANCE EULERIAN-1 
             - THIS BOUNDARY CONDITION IS IGNORED

 ***WARNING: DEGREE OF FREEDOM 5 IS NOT ACTIVE ON NODE 6550 INSTANCE EULERIAN-1 
             - THIS BOUNDARY CONDITION IS IGNORED

 ***WARNING: DEGREE OF FREEDOM 6 IS NOT ACTIVE ON NODE 6550 INSTANCE EULERIAN-1 
             - THIS BOUNDARY CONDITION IS IGNORED

 ***WARNING: DEGREE OF FREEDOM 4 IS NOT ACTIVE ON NODE 6551 INSTANCE EULERIAN-1 
             - THIS BOUNDARY CONDITION IS IGNORED

 ***WARNING: DEGREE OF FREEDOM 5 IS NOT ACTIVE ON NODE 6551 INSTANCE EULERIAN-1 
             - THIS BOUNDARY CONDITION IS IGNORED

 ***WARNING: DEGREE OF FREEDOM 6 IS NOT ACTIVE ON NODE 6551 INSTANCE EULERIAN-1 
             - THIS BOUNDARY CONDITION IS IGNORED

 ***WARNING: DEGREE OF FREEDOM 4 IS NOT ACTIVE ON NODE 6552 INSTANCE EULERIAN-1 
             - THIS BOUNDARY CONDITION IS IGNORED

 ***WARNING: DEGREE OF FREEDOM 5 IS NOT ACTIVE ON NODE 6552 INSTANCE EULERIAN-1 
             - THIS BOUNDARY CONDITION IS IGNORED

 ***WARNING: DEGREE OF FREEDOM 6 IS NOT ACTIVE ON NODE 6552 INSTANCE EULERIAN-1 
             - THIS BOUNDARY CONDITION IS IGNORED

 ***WARNING: DEGREE OF FREEDOM 4 IS NOT ACTIVE ON NODE 6553 INSTANCE EULERIAN-1 
             - THIS BOUNDARY CONDITION IS IGNORED

 ***WARNING: DEGREE OF FREEDOM 5 IS NOT ACTIVE ON NODE 6553 INSTANCE EULERIAN-1 
             - THIS BOUNDARY CONDITION IS IGNORED

 ***WARNING: DEGREE OF FREEDOM 6 IS NOT ACTIVE ON NODE 6553 INSTANCE EULERIAN-1 
             - THIS BOUNDARY CONDITION IS IGNORED

 ***WARNING: DEGREE OF FREEDOM 4 IS NOT ACTIVE ON NODE 6554 INSTANCE EULERIAN-1 
             - THIS BOUNDARY CONDITION IS IGNORED

 ***WARNING: DEGREE OF FREEDOM 5 IS NOT ACTIVE ON NODE 6554 INSTANCE EULERIAN-1 
             - THIS BOUNDARY CONDITION IS IGNORED

 ***WARNING: DEGREE OF FREEDOM 6 IS NOT ACTIVE ON NODE 6554 INSTANCE EULERIAN-1 
             - THIS BOUNDARY CONDITION IS IGNORED

 ***WARNING: DEGREE OF FREEDOM 4 IS NOT ACTIVE ON NODE 6555 INSTANCE EULERIAN-1 
             - THIS BOUNDARY CONDITION IS IGNORED

 ***WARNING: DEGREE OF FREEDOM 5 IS NOT ACTIVE ON NODE 6555 INSTANCE EULERIAN-1 
             - THIS BOUNDARY CONDITION IS IGNORED

 ***WARNING: DEGREE OF FREEDOM 6 IS NOT ACTIVE ON NODE 6555 INSTANCE EULERIAN-1 
             - THIS BOUNDARY CONDITION IS IGNORED

 ***WARNING: DEGREE OF FREEDOM 4 IS NOT ACTIVE ON NODE 6556 INSTANCE EULERIAN-1 
             - THIS BOUNDARY CONDITION IS IGNORED

 ***WARNING: DEGREE OF FREEDOM 5 IS NOT ACTIVE ON NODE 6556 INSTANCE EULERIAN-1 
             - THIS BOUNDARY CONDITION IS IGNORED

 ***WARNING: DEGREE OF FREEDOM 6 IS NOT ACTIVE ON NODE 6556 INSTANCE EULERIAN-1 
             - THIS BOUNDARY CONDITION IS IGNORED

 ***WARNING: DEGREE OF FREEDOM 4 IS NOT ACTIVE ON NODE 6557 INSTANCE EULERIAN-1 
             - THIS BOUNDARY CONDITION IS IGNORED

 ***WARNING: DEGREE OF FREEDOM 5 IS NOT ACTIVE ON NODE 6557 INSTANCE EULERIAN-1 
             - THIS BOUNDARY CONDITION IS IGNORED

 ***WARNING: DEGREE OF FREEDOM 6 IS NOT ACTIVE ON NODE 6557 INSTANCE EULERIAN-1 
             - THIS BOUNDARY CONDITION IS IGNORED

 ***WARNING: DEGREE OF FREEDOM 4 IS NOT ACTIVE ON NODE 6558 INSTANCE EULERIAN-1 
             - THIS BOUNDARY CONDITION IS IGNORED

 ***WARNING: DEGREE OF FREEDOM 5 IS NOT ACTIVE ON NODE 6558 INSTANCE EULERIAN-1 
             - THIS BOUNDARY CONDITION IS IGNORED

 ***WARNING: DEGREE OF FREEDOM 6 IS NOT ACTIVE ON NODE 6558 INSTANCE EULERIAN-1 
             - THIS BOUNDARY CONDITION IS IGNORED

 ***WARNING: DEGREE OF FREEDOM 4 IS NOT ACTIVE ON NODE 6559 INSTANCE EULERIAN-1 
             - THIS BOUNDARY CONDITION IS IGNORED

 ***WARNING: DEGREE OF FREEDOM 5 IS NOT ACTIVE ON NODE 6559 INSTANCE EULERIAN-1 
             - THIS BOUNDARY CONDITION IS IGNORED

 ***WARNING: DEGREE OF FREEDOM 6 IS NOT ACTIVE ON NODE 6559 INSTANCE EULERIAN-1 
             - THIS BOUNDARY CONDITION IS IGNORED

 ***WARNING: DEGREE OF FREEDOM 4 IS NOT ACTIVE ON NODE 6560 INSTANCE EULERIAN-1 
             - THIS BOUNDARY CONDITION IS IGNORED

 ***WARNING: DEGREE OF FREEDOM 5 IS NOT ACTIVE ON NODE 6560 INSTANCE EULERIAN-1 
             - THIS BOUNDARY CONDITION IS IGNORED

 ***WARNING: DEGREE OF FREEDOM 6 IS NOT ACTIVE ON NODE 6560 INSTANCE EULERIAN-1 
             - THIS BOUNDARY CONDITION IS IGNORED

 ***WARNING: DEGREE OF FREEDOM 4 IS NOT ACTIVE ON NODE 6561 INSTANCE EULERIAN-1 
             - THIS BOUNDARY CONDITION IS IGNORED

 ***WARNING: DEGREE OF FREEDOM 5 IS NOT ACTIVE ON NODE 6561 INSTANCE EULERIAN-1 
             - THIS BOUNDARY CONDITION IS IGNORED

 ***WARNING: DEGREE OF FREEDOM 6 IS NOT ACTIVE ON NODE 6561 INSTANCE EULERIAN-1 
             - THIS BOUNDARY CONDITION IS IGNORED

 ***WARNING: DEGREE OF FREEDOM 4 IS NOT ACTIVE ON NODE 6562 INSTANCE EULERIAN-1 
             - THIS BOUNDARY CONDITION IS IGNORED

 ***WARNING: DEGREE OF FREEDOM 5 IS NOT ACTIVE ON NODE 6562 INSTANCE EULERIAN-1 
             - THIS BOUNDARY CONDITION IS IGNORED

 ***WARNING: DEGREE OF FREEDOM 6 IS NOT ACTIVE ON NODE 6562 INSTANCE EULERIAN-1 
             - THIS BOUNDARY CONDITION IS IGNORED

 ***WARNING: DEGREE OF FREEDOM 4 IS NOT ACTIVE ON NODE 6563 INSTANCE EULERIAN-1 
             - THIS BOUNDARY CONDITION IS IGNORED

 ***WARNING: DEGREE OF FREEDOM 5 IS NOT ACTIVE ON NODE 6563 INSTANCE EULERIAN-1 
             - THIS BOUNDARY CONDITION IS IGNORED

 ***WARNING: DEGREE OF FREEDOM 6 IS NOT ACTIVE ON NODE 6563 INSTANCE EULERIAN-1 
             - THIS BOUNDARY CONDITION IS IGNORED

 ***WARNING: DEGREE OF FREEDOM 4 IS NOT ACTIVE ON NODE 6564 INSTANCE EULERIAN-1 
             - THIS BOUNDARY CONDITION IS IGNORED

 ***WARNING: DEGREE OF FREEDOM 5 IS NOT ACTIVE ON NODE 6564 INSTANCE EULERIAN-1 
             - THIS BOUNDARY CONDITION IS IGNORED

 ***WARNING: DEGREE OF FREEDOM 6 IS NOT ACTIVE ON NODE 6564 INSTANCE EULERIAN-1 
             - THIS BOUNDARY CONDITION IS IGNORED

 ***WARNING: DEGREE OF FREEDOM 4 IS NOT ACTIVE ON NODE 6565 INSTANCE EULERIAN-1 
             - THIS BOUNDARY CONDITION IS IGNORED

 ***WARNING: DEGREE OF FREEDOM 5 IS NOT ACTIVE ON NODE 6565 INSTANCE EULERIAN-1 
             - THIS BOUNDARY CONDITION IS IGNORED

 ***WARNING: DEGREE OF FREEDOM 6 IS NOT ACTIVE ON NODE 6565 INSTANCE EULERIAN-1 
             - THIS BOUNDARY CONDITION IS IGNORED

 ***WARNING: DEGREE OF FREEDOM 4 IS NOT ACTIVE ON NODE 6566 INSTANCE EULERIAN-1 
             - THIS BOUNDARY CONDITION IS IGNORED

 ***WARNING: DEGREE OF FREEDOM 5 IS NOT ACTIVE ON NODE 6566 INSTANCE EULERIAN-1 
             - THIS BOUNDARY CONDITION IS IGNORED

 ***WARNING: DEGREE OF FREEDOM 6 IS NOT ACTIVE ON NODE 6566 INSTANCE EULERIAN-1 
             - THIS BOUNDARY CONDITION IS IGNORED

 ***NOTE: Boundary conditions are specified on inactive dof of 658 nodes. The 
          nodes have been identified in node set WarnNodeBCInactiveDof.



                            P R O B L E M   S I Z E


          NUMBER OF ELEMENTS IS                                 48686
          NUMBER OF NODES IS                                    98798
          NUMBER OF NODES DEFINED BY THE USER                   98798
          TOTAL NUMBER OF VARIABLES IN THE MODEL               394760
          (DEGREES OF FREEDOM PLUS MAX NO. OF ANY LAGRANGE MULTIPLIER
           VARIABLES. INCLUDE *PRINT,SOLVE=YES TO GET THE ACTUAL NUMBER.)



                              END OF USER INPUT PROCESSING



     JOB TIME SUMMARY
       USER TIME (SEC)      =   1.0000    
       SYSTEM TIME (SEC)    =  0.40000    
       TOTAL CPU TIME (SEC) =   1.4000    
       WALLCLOCK TIME (SEC) =          4
